<?xml version="1.0" encoding="UTF-8"?>

<!-- generated on 10/04/19 16:22:24 by Eclipse SUMO netedit Version 1.2.0
<configuration xmlns:xsi="http://www.w3.org/2001/XMLSchema-instance" xsi:noNamespaceSchemaLocation="http://sumo.dlr.de/xsd/netconvertConfiguration.xsd">

    <input>
        <sumo-net-file value="E:\Google_Drive_QL\HiWi\PC-SPSA\Munich_new\data\Munich_cc2_mr.net.xml"/>
    </input>

    <output>
        <output-file value="E:\Google_Drive_QL\HiWi\PC-SPSA\Munich_new\data\Munich_cc2_mr.net.xml"/>
    </output>

    <processing>
        <geometry.max-grade.fix value="false"/>
        <offset.disable-normalization value="true"/>
        <lefthand value="false"/>
    </processing>

    <junctions>
        <no-turnarounds value="true"/>
        <junctions.corner-detail value="5"/>
        <junctions.limit-turn-speed value="5.5"/>
        <rectangular-lane-cut value="false"/>
    </junctions>

    <pedestrian>
        <walkingareas value="false"/>
    </pedestrian>

    <netedit>
        <additional-files value="E:\Google_Drive_QL\HiWi\PC-SPSA\Munich_new\data\temp2.add.xml"/>
    </netedit>

</configuration>
-->

<additional xmlns:xsi="http://www.w3.org/2001/XMLSchema-instance" xsi:noNamespaceSchemaLocation="http://sumo.dlr.de/xsd/additional_file.xsd">
    <e1Detector id="e1Detector_-103281163#2_0_1167" name="10287005" lane="-103281163#2_0" pos="337.34" freq="900.00" file="out.xml">
        <param key="C" value="48.126708, 11.621800"/>
    </e1Detector>
    <e1Detector id="e1Detector_-114254840#1_0_74" name="10015006" lane="-114254840#1_0" pos="3.26" freq="900.00" file="out.xml">
        <param key="C" value="48.125124, 11.599282"/>
    </e1Detector>
    <e1Detector id="e1Detector_-114254840#1_1_75" name="10015007" lane="-114254840#1_1" pos="2.81" freq="900.00" file="out.xml">
        <param key="C" value="48.125143, 11.599251"/>
    </e1Detector>
    <e1Detector id="e1Detector_-114255526_0_252" name="10728004" lane="-114255526_0" pos="227.42" freq="900.00" file="out.xml">
        <param key="C" value="48.126707, 11.597101"/>
    </e1Detector>
    <e1Detector id="e1Detector_-114255526_1_253" name="10728005" lane="-114255526_1" pos="227.52" freq="900.00" file="out.xml">
        <param key="C" value="48.126701, 11.597048"/>
    </e1Detector>
    <e1Detector id="e1Detector_-122857296#1_0_435" name="10866004" lane="-122857296#1_0" pos="305.86" freq="900.00" file="out.xml">
        <param key="C" value="48.123819, 11.590315"/>
    </e1Detector>
    <e1Detector id="e1Detector_-122857296#1_0_506" name="10128007" lane="-122857296#1_0" pos="435.37" freq="900.00" file="out.xml" friendlyPos="1">
        <param key="C" value="48.124602, 11.588656"/>
    </e1Detector>
    <e1Detector id="e1Detector_-134123085#2_0_328" name="10086006" lane="-134123085#2_0" pos="41.51" freq="900.00" file="out.xml">
        <param key="C" value="48.131190, 11.571823"/>
    </e1Detector>
    <e1Detector id="e1Detector_-134123085#2_1_329" name="10086007" lane="-134123085#2_1" pos="31.54" freq="900.00" file="out.xml">
        <param key="C" value="48.131109, 11.571882"/>
    </e1Detector>
    <e1Detector id="e1Detector_-134575642_1_191" name="10051002" lane="-134575642_1" pos="23.94" freq="900.00" file="out.xml">
        <param key="C" value="48.100589, 11.541332"/>
    </e1Detector>
    <e1Detector id="e1Detector_-141433955_0_527" name="10132023" lane="-141433955_0" pos="28.25" freq="900.00" file="out.xml">
        <param key="C" value="48.123989, 11.597285"/>
    </e1Detector>
    <e1Detector id="e1Detector_-141433955_1_526" name="10132024" lane="-141433955_1" pos="27.78" freq="900.00" file="out.xml">
        <param key="C" value="48.124023, 11.597252"/>
    </e1Detector>
    <e1Detector id="e1Detector_-143303450_0_388" name="10814001" lane="-143303450_0" pos="263.86" freq="900.00" file="out.xml">
        <param key="C" value="48.098941, 11.559657"/>
    </e1Detector>
    <e1Detector id="e1Detector_-143304972#1_0_189" name="10051003" lane="-143304972#1_0" pos="34.84" freq="900.00" file="out.xml">
        <param key="C" value="48.100633, 11.540775"/>
    </e1Detector>
    <e1Detector id="e1Detector_-143304972#1_1_190" name="10051004" lane="-143304972#1_1" pos="34.33" freq="900.00" file="out.xml">
        <param key="C" value="48.100659, 11.540747"/>
    </e1Detector>
    <e1Detector id="e1Detector_-146645330_0_1489" name="10527001" lane="-146645330_0" pos="790.52" freq="900.00" file="out.xml">
        <param key="C" value="48.108469, 11.618938"/>
    </e1Detector>
    <e1Detector id="e1Detector_-146800313#2_0_139" name="10029005" lane="-146800313#2_0" pos="28.39" freq="900.00" file="out.xml">
        <param key="C" value="48.137322, 11.564260"/>
    </e1Detector>
    <e1Detector id="e1Detector_-146800313#2_1_138" name="10029006" lane="-146800313#2_1" pos="28.93" freq="900.00" file="out.xml">
        <param key="C" value="48.137347, 11.564295"/>
    </e1Detector>
    <e1Detector id="e1Detector_-146800313#2_2_137" name="10029007" lane="-146800313#2_2" pos="28.75" freq="900.00" file="out.xml">
        <param key="C" value="48.137386, 11.564284"/>
    </e1Detector>
    <e1Detector id="e1Detector_-147926678#4_0_82" name="10016011" lane="-147926678#4_0" pos="526.44" freq="900.00" file="out.xml">
        <param key="C" value="48.128214, 11.593740"/>
    </e1Detector>
    <e1Detector id="e1Detector_-147926678#4_1_83" name="10016012" lane="-147926678#4_1" pos="539.66" freq="900.00" file="out.xml">
        <param key="C" value="48.128347, 11.593773"/>
    </e1Detector>
    <e1Detector id="e1Detector_-151087449#2_0_501" name="10128001" lane="-151087449#2_0" pos="378.46" freq="900.00" file="out.xml" friendlyPos="1">
        <param key="C" value="48.124602, 11.588656"/>
    </e1Detector>
    <e1Detector id="e1Detector_-151087452#4_0_1057" name="11081006" lane="-151087452#4_0" pos="662.60" freq="900.00" file="out.xml">
        <param key="C" value="48.121643, 11.586308"/>
    </e1Detector>
    <e1Detector id="e1Detector_-151145694_0_886" name="10244003" lane="-151145694_0" pos="176.22" freq="900.00" file="out.xml">
        <param key="C" value="48.119256, 11.583095"/>
    </e1Detector>
    <e1Detector id="e1Detector_-151754277#1_1_1010" name="11055004" lane="-151754277#1_1" pos="19.55" freq="900.00" file="out.xml">
        <param key="C" value="48.157625, 11.574795"/>
    </e1Detector>
    <e1Detector id="e1Detector_-151782111#2_0_602" name="10155009" lane="-151782111#2_0" pos="41.63" freq="900.00" file="out.xml">
        <param key="C" value="48.117288, 11.533556"/>
    </e1Detector>
    <e1Detector id="e1Detector_-151782111#2_1_603" name="10155010" lane="-151782111#2_1" pos="41.35" freq="900.00" file="out.xml">
        <param key="C" value="48.117325, 11.533605"/>
    </e1Detector>
    <e1Detector id="e1Detector_-151782111#2_2_604" name="10155011" lane="-151782111#2_2" pos="64.58" freq="900.00" file="out.xml">
        <param key="C" value="48.117125, 11.533654"/>
    </e1Detector>
    <e1Detector id="e1Detector_-151860715_0_1054" name="10074004" lane="-151860715_0" pos="60.92" freq="900.00" file="out.xml">
        <param key="C" value="48.168808, 11.526566"/>
    </e1Detector>
    <e1Detector id="e1Detector_-151878378_0_68" name="10012004" lane="-151878378_0" pos="47.77" freq="900.00" file="out.xml">
        <param key="C" value="48.142767, 11.576907"/>
    </e1Detector>
    <e1Detector id="e1Detector_-151945454#2_0_769" name="10198006" lane="-151945454#2_0" pos="9.83" freq="900.00" file="out.xml">
        <param key="C" value="48.128698, 11.630632"/>
    </e1Detector>
    <e1Detector id="e1Detector_-151945454#2_1_770" name="10198007" lane="-151945454#2_1" pos="9.30" freq="900.00" file="out.xml">
        <param key="C" value="48.128697, 11.630676"/>
    </e1Detector>
    <e1Detector id="e1Detector_-151996169_1_13" name="10406005" lane="-151996169_1" pos="191.99" freq="900.00" file="out.xml">
        <param key="C" value="48.156038, 11.573424"/>
    </e1Detector>
    <e1Detector id="e1Detector_-152110769_0_1443" name="10541001" lane="-152110769_0" pos="174.52" freq="900.00" file="out.xml">
        <param key="C" value="48.181862, 11.518933"/>
    </e1Detector>
    <e1Detector id="e1Detector_-152468885#2_0_63" name="10011005" lane="-152468885#2_0" pos="42.61" freq="900.00" file="out.xml">
        <param key="C" value="48.157405, 11.583901"/>
    </e1Detector>
    <e1Detector id="e1Detector_-152468885#2_0_64" name="10011006" lane="-152468885#2_0" pos="16.42" freq="900.00" file="out.xml">
        <param key="C" value="48.157330, 11.584233"/>
    </e1Detector>
    <e1Detector id="e1Detector_-153470059#2_1_1194" name="10311001" lane="-153470059#2_1" pos="21.18" freq="900.00" file="out.xml">
        <param key="C" value="48.126420, 11.584062"/>
    </e1Detector>
    <e1Detector id="e1Detector_-153470059#2_2_1193" name="10311002" lane="-153470059#2_2" pos="36.39" freq="900.00" file="out.xml">
        <param key="C" value="48.126449, 11.583859"/>
    </e1Detector>
    <e1Detector id="e1Detector_-155603789#1_0_1291" name="10356001" lane="-155603789#1_0" pos="533.02" freq="900.00" file="out.xml">
        <param key="C" value="48.161090, 11.567010"/>
    </e1Detector>
    <e1Detector id="e1Detector_-157798419_1_184" name="10049008" lane="-157798419_1" pos="35.76" freq="900.00" file="out.xml">
        <param key="C" value="48.125280, 11.549827"/>
    </e1Detector>
    <e1Detector id="e1Detector_-157798419_2_185" name="10049009" lane="-157798419_2" pos="35.05" freq="900.00" file="out.xml">
        <param key="C" value="48.125254, 11.549855"/>
    </e1Detector>
    <e1Detector id="e1Detector_-158901369_0_760" name="10190006" lane="-158901369_0" pos="350.33" freq="900.00" file="out.xml">
        <param key="C" value="48.160296, 11.575675"/>
    </e1Detector>
    <e1Detector id="e1Detector_-167443079_0_395" name="10100001" lane="-167443079_0" pos="91.35" freq="900.00" file="out.xml">
        <param key="C" value="48.143650, 11.584307"/>
    </e1Detector>
    <e1Detector id="e1Detector_-167443079_1_396" name="10100002" lane="-167443079_1" pos="72.27" freq="900.00" file="out.xml">
        <param key="C" value="48.143490, 11.584184"/>
    </e1Detector>
    <e1Detector id="e1Detector_-167443079_2_397" name="10100003" lane="-167443079_2" pos="72.04" freq="900.00" file="out.xml">
        <param key="C" value="48.143500, 11.584139"/>
    </e1Detector>
    <e1Detector id="e1Detector_-168719672_0_356" name="10093009" lane="-168719672_0" pos="8.16" freq="900.00" file="out.xml">
        <param key="C" value="48.126738, 11.557771"/>
    </e1Detector>
    <e1Detector id="e1Detector_-176837682_1_174" name="10047008" lane="-176837682_1" pos="46.28" freq="900.00" file="out.xml">
        <param key="C" value="48.129787, 11.558763"/>
    </e1Detector>
    <e1Detector id="e1Detector_-176837682_2_175" name="10047009" lane="-176837682_2" pos="47.86" freq="900.00" file="out.xml">
        <param key="C" value="48.129756, 11.558773"/>
    </e1Detector>
    <e1Detector id="e1Detector_-176837682_3_176" name="10047010" lane="-176837682_3" pos="63.04" freq="900.00" file="out.xml">
        <param key="C" value="48.129652, 11.558624"/>
    </e1Detector>
    <e1Detector id="e1Detector_-185529649_0_195" name="10051009" lane="-185529649_0" pos="10.65" freq="900.00" file="out.xml">
        <param key="C" value="48.101251, 11.541159"/>
    </e1Detector>
    <e1Detector id="e1Detector_-18959384_0_202" name="10054001" lane="-18959384_0" pos="133.43" freq="900.00" file="out.xml">
        <param key="C" value="48.141875, 11.593968"/>
    </e1Detector>
    <e1Detector id="e1Detector_-18959384_1_203" name="10054002" lane="-18959384_1" pos="133.42" freq="900.00" file="out.xml">
        <param key="C" value="48.141875, 11.593968"/>
    </e1Detector>
    <e1Detector id="e1Detector_-218270484#1_0_1020" name="10259011" lane="-218270484#1_0" pos="26.59" freq="900.00" file="out.xml">
        <param key="C" value="48.167394, 11.586943"/>
    </e1Detector>
    <e1Detector id="e1Detector_-218270484#1_1_1021" name="10259012" lane="-218270484#1_1" pos="27.13" freq="900.00" file="out.xml">
        <param key="C" value="48.167368, 11.586940"/>
    </e1Detector>
    <e1Detector id="e1Detector_-232867856_0_1065" name="10266003" lane="-232867856_0" pos="177.85" freq="900.00" file="out.xml">
        <param key="C" value="48.124785, 11.581566"/>
    </e1Detector>
    <e1Detector id="e1Detector_-23967821_0_1008" name="10258004" lane="-23967821_0" pos="107.96" freq="900.00" file="out.xml">
        <param key="C" value="48.124096, 11.601516"/>
    </e1Detector>
    <e1Detector id="e1Detector_-23967821_1_1009" name="10258005" lane="-23967821_1" pos="107.38" freq="900.00" file="out.xml">
        <param key="C" value="48.124118, 11.601538"/>
    </e1Detector>
    <e1Detector id="e1Detector_-23967821_1_1524" name="10258006" lane="-23967821_1" pos="145.91" freq="900.00" file="e1Detector_-23967821_1_1524.xml">
        <param key="C" value="48.123912, 11.601925"/>
    </e1Detector>
    <e1Detector id="e1Detector_-241052498#1_0_251" name="10070001" lane="-241052498#1_0" pos="227.89" freq="900.00" file="out.xml">
        <param key="C" value="48.129092, 11.578914"/>
    </e1Detector>
    <e1Detector id="e1Detector_-241052498#1_1_252" name="10070002" lane="-241052498#1_1" pos="215.69" freq="900.00" file="out.xml">
        <param key="C" value="48.129056, 11.578751"/>
    </e1Detector>
    <e1Detector id="e1Detector_-256851512_1_1523" name="10501002" lane="-256851512_1" pos="222.86" freq="900.00" file="out.xml">
        <param key="C" value="48.184782, 11.572824"/>
    </e1Detector>
    <e1Detector id="e1Detector_-25943198_0_67" name="10012003" lane="-25943198_0" pos="197.32" freq="900.00" file="out.xml">
        <param key="C" value="48.142709, 11.577010"/>
    </e1Detector>
    <e1Detector id="e1Detector_-260345666_0_537" name="10133008" lane="-260345666_0" pos="19.84" freq="900.00" file="out.xml" friendlyPos="1">
        <param key="C" value="48.119724, 11.600830"/>
    </e1Detector>
    <e1Detector id="e1Detector_-260510503_0_1241" name="10328010" lane="-260510503_0" pos="50.69" freq="900.00" file="out.xml">
        <param key="C" value="48.104399, 11.605383"/>
    </e1Detector>
    <e1Detector id="e1Detector_-260510503_1_1240" name="10328011" lane="-260510503_1" pos="50.37" freq="900.00" file="out.xml">
        <param key="C" value="48.104384, 11.605338"/>
    </e1Detector>
    <e1Detector id="e1Detector_-260510503_2_1239" name="10328012" lane="-260510503_2" pos="50.60" freq="900.00" file="out.xml">
        <param key="C" value="48.104377, 11.605305"/>
    </e1Detector>
    <e1Detector id="e1Detector_-264448401#5_0_703" name="10927001" lane="-264448401#5_0" pos="552.92" freq="900.00" file="out.xml">
        <param key="C" value="48.131887, 11.529745"/>
    </e1Detector>
    <e1Detector id="e1Detector_-264448401#5_0_949" name="11031002" lane="-264448401#5_0" pos="458.08" freq="900.00" file="out.xml">
        <param key="C" value="48.132512, 11.528870"/>
    </e1Detector>
    <e1Detector id="e1Detector_-26753700#1_0_530" name="10132001" lane="-26753700#1_0" pos="104.58" freq="900.00" file="out.xml">
        <param key="C" value="48.123604, 11.597293"/>
    </e1Detector>
    <e1Detector id="e1Detector_-26753700#1_1_531" name="10132002" lane="-26753700#1_1" pos="105.06" freq="900.00" file="out.xml">
        <param key="C" value="48.123586, 11.597254"/>
    </e1Detector>
    <e1Detector id="e1Detector_-27145307#2_2_1297" name="10357008" lane="-27145307#2_2" pos="44.11" freq="900.00" file="out.xml">
        <param key="C" value="48.125099, 11.540860"/>
    </e1Detector>
    <e1Detector id="e1Detector_-280614998_0_945" name="11024006" lane="-280614998_0" pos="581.75" freq="900.00" file="out.xml">
        <param key="C" value="48.132694, 11.591110"/>
    </e1Detector>
    <e1Detector id="e1Detector_-292914314#2_0_1389" name="10394013" lane="-292914314#2_0" pos="208.70" freq="900.00" file="out.xml">
        <param key="C" value="48.127719, 11.545399"/>
    </e1Detector>
    <e1Detector id="e1Detector_-292914314#2_1_1390" name="10394006" lane="-292914314#2_1" pos="208.50" freq="900.00" file="out.xml">
        <param key="C" value="48.127690, 11.545382"/>
    </e1Detector>
    <e1Detector id="e1Detector_-292944725#1_0_5" name="10402001" lane="-292944725#1_0" pos="619.37" freq="900.00" file="out.xml">
        <param key="C" value="48.134225, 11.547092"/>
    </e1Detector>
    <e1Detector id="e1Detector_-29448442#1_0_186" name="10049015" lane="-29448442#1_0" pos="7.97" freq="900.00" file="out.xml">
        <param key="C" value="48.124965, 11.549402"/>
    </e1Detector>
    <e1Detector id="e1Detector_-29448442#1_1_187" name="10049016" lane="-29448442#1_1" pos="7.42" freq="900.00" file="out.xml">
        <param key="C" value="48.124952, 11.549438"/>
    </e1Detector>
    <e1Detector id="e1Detector_-29461886#1_0_141" name="10442004" lane="-29461886#1_0" pos="696.62" freq="900.00" file="out.xml">
        <param key="C" value="48.131031, 11.539269"/>
    </e1Detector>
    <e1Detector id="e1Detector_-29461886#1_0_434" name="10864001" lane="-29461886#1_0" pos="226.99" freq="900.00" file="out.xml">
        <param key="C" value="48.133945, 11.544257"/>
    </e1Detector>
    <e1Detector id="e1Detector_-304423860#1_0_183" name="10049017" lane="-304423860#1_0" pos="10.59" freq="900.00" file="out.xml">
        <param key="C" value="48.125247, 11.549425"/>
    </e1Detector>
    <e1Detector id="e1Detector_-304504212_0_1387" name="10388007" lane="-304504212_0" pos="134.67" freq="900.00" file="out.xml">
        <param key="C" value="48.127642, 11.581314"/>
    </e1Detector>
    <e1Detector id="e1Detector_-30816922#3_0_1224" name="10319005" lane="-30816922#3_0" pos="86.43" freq="900.00" file="out.xml">
        <param key="C" value="48.163708, 11.574493"/>
    </e1Detector>
    <e1Detector id="e1Detector_-30816922#3_0_359" name="10094004" lane="-30816922#3_0" pos="131.94" freq="900.00" file="out.xml">
        <param key="C" value="48.163296, 11.574567"/>
    </e1Detector>
    <e1Detector id="e1Detector_-30816922#3_0_761" name="10190005" lane="-30816922#3_0" pos="424.05" freq="900.00" file="out.xml">
        <param key="C" value="48.160763, 11.575001"/>
    </e1Detector>
    <e1Detector id="e1Detector_-30917885#1_0_14" name="10004012" lane="-30917885#1_0" pos="52.68" freq="900.00" file="out.xml">
        <param key="C" value="48.132682, 11.585166"/>
    </e1Detector>
    <e1Detector id="e1Detector_-30917885#1_1_15" name="10004013" lane="-30917885#1_1" pos="52.52" freq="900.00" file="out.xml">
        <param key="C" value="48.132677, 11.585213"/>
    </e1Detector>
    <e1Detector id="e1Detector_-30917885#1_2_16" name="10004014" lane="-30917885#1_2" pos="62.89" freq="900.00" file="out.xml">
        <param key="C" value="48.132582, 11.585165"/>
    </e1Detector>
    <e1Detector id="e1Detector_-310707192#1_1_868" name="10241004" lane="-310707192#1_1" pos="179.05" freq="900.00" file="out.xml">
        <param key="C" value="48.148097, 11.555416"/>
    </e1Detector>
    <e1Detector id="e1Detector_-310719822_0_1075" name="10274008" lane="-310719822_0" pos="347.07" freq="900.00" file="out.xml">
        <param key="C" value="48.161032, 11.558658"/>
    </e1Detector>
    <e1Detector id="e1Detector_-310719822_1_1074" name="10274009" lane="-310719822_1" pos="345.02" freq="900.00" file="out.xml">
        <param key="C" value="48.161003, 11.558623"/>
    </e1Detector>
    <e1Detector id="e1Detector_-31130637_0_188" name="10054001" lane="-31130637_0" pos="298.22" freq="900.00" file="out.xml">
        <param key="C" value="48.100238, 11.541413"/>
    </e1Detector>
    <e1Detector id="e1Detector_-31159465_0_204" name="10055001" lane="-31159465_0" pos="347.51" freq="900.00" file="out.xml">
        <param key="C" value="48.142361, 11.591598"/>
    </e1Detector>
    <e1Detector id="e1Detector_-31159465_0_320" name="10085001" lane="-31159465_0" pos="105.88" freq="900.00" file="out.xml">
        <param key="C" value="48.142995, 11.588493"/>
    </e1Detector>
    <e1Detector id="e1Detector_-31159465_0_587" name="4099011" lane="-31159465_0" pos="354.70" freq="900.00" file="out.xml">
        <param key="C" value="48.142346, 11.591713"/>
    </e1Detector>
    <e1Detector id="e1Detector_-31159465_1_205" name="10055002" lane="-31159465_1" pos="347.39" freq="900.00" file="out.xml">
        <param key="C" value="48.142396, 11.591616"/>
    </e1Detector>
    <e1Detector id="e1Detector_-31159465_1_321" name="10085002" lane="-31159465_1" pos="96.89" freq="900.00" file="out.xml">
        <param key="C" value="48.143054, 11.588395"/>
    </e1Detector>
    <e1Detector id="e1Detector_-31159465_1_586" name="4099012" lane="-31159465_1" pos="354.81" freq="900.00" file="out.xml">
        <param key="C" value="48.142370, 11.591724"/>
    </e1Detector>
    <e1Detector id="e1Detector_-31159465_2_206" name="10055003" lane="-31159465_2" pos="346.91" freq="900.00" file="out.xml">
        <param key="C" value="48.142419, 11.591622"/>
    </e1Detector>
    <e1Detector id="e1Detector_-31159465_2_322" name="10085003" lane="-31159465_2" pos="96.91" freq="900.00" file="out.xml">
        <param key="C" value="48.143079, 11.588405"/>
    </e1Detector>
    <e1Detector id="e1Detector_-31159465_2_585" name="4099013" vTypes="out.xml" lane="-31159465_2" pos="355.02" freq="900.00" file="out.xml">
        <param key="C" value="48.142399, 11.591724"/>
    </e1Detector>
    <e1Detector id="e1Detector_-311960667_0_1059" name="11081001" lane="-311960667_0" pos="50.67" freq="900.00" file="out.xml">
        <param key="C" value="48.120987, 11.585367"/>
    </e1Detector>
    <e1Detector id="e1Detector_-314095467_0_800" name="10207001" lane="-314095467_0" pos="499.08" freq="900.00" file="out.xml">
        <param key="C" value="48.108770, 11.605487"/>
    </e1Detector>
    <e1Detector id="e1Detector_-314095467_1_801" name="10207002" lane="-314095467_1" pos="499.52" freq="900.00" file="out.xml">
        <param key="C" value="48.108738, 11.605488"/>
    </e1Detector>
    <e1Detector id="e1Detector_-315156359#2_0_599" name="10155006" lane="-315156359#2_0" pos="22.21" freq="900.00" file="out.xml">
        <param key="C" value="48.116786, 11.532994"/>
    </e1Detector>
    <e1Detector id="e1Detector_-315156359#2_1_600" name="10155007" lane="-315156359#2_1" pos="21.66" freq="900.00" file="out.xml">
        <param key="C" value="48.116819, 11.532980"/>
    </e1Detector>
    <e1Detector id="e1Detector_-315156359#2_2_601" name="10155008" lane="-315156359#2_2" pos="50.08" freq="900.00" file="out.xml">
        <param key="C" value="48.116846, 11.533376"/>
    </e1Detector>
    <e1Detector id="e1Detector_-315156367#2_0_598" name="10155013" lane="-315156367#2_0" pos="35.60" freq="900.00" file="out.xml">
        <param key="C" value="48.116428, 11.533606"/>
    </e1Detector>
    <e1Detector id="e1Detector_-315202560#1_0_624" name="10160001" lane="-315202560#1_0" pos="6.58" freq="900.00" file="out.xml">
        <param key="C" value="48.129910, 11.555732"/>
    </e1Detector>
    <e1Detector id="e1Detector_-315202560#1_1_623" name="10160002" lane="-315202560#1_1" pos="6.40" freq="900.00" file="out.xml">
        <param key="C" value="48.129915, 11.555774"/>
    </e1Detector>
    <e1Detector id="e1Detector_-315825107_0_231" name="10060001" lane="-315825107_0" pos="62.33" freq="900.00" file="out.xml">
        <param key="C" value="48.119430, 11.575597"/>
    </e1Detector>
    <e1Detector id="e1Detector_-315825107_1_232" name="10060002" lane="-315825107_1" pos="47.51" freq="900.00" file="out.xml">
        <param key="C" value="48.119337, 11.575748"/>
    </e1Detector>
    <e1Detector id="e1Detector_-323443316#2_0_828" name="10222001" lane="-323443316#2_0" pos="72.22" freq="900.00" file="out.xml">
        <param key="C" value="48.112065, 11.548329"/>
    </e1Detector>
    <e1Detector id="e1Detector_-323443316#2_1_829" name="10222002" lane="-323443316#2_1" pos="57.28" freq="900.00" file="out.xml">
        <param key="C" value="48.112083, 11.548124"/>
    </e1Detector>
    <e1Detector id="e1Detector_-323443316#2_2_830" name="10222003" lane="-323443316#2_2" pos="73.08" freq="900.00" file="out.xml">
        <param key="C" value="48.112122, 11.548318"/>
    </e1Detector>
    <e1Detector id="e1Detector_-323443316#2_2_835" name="10222004" lane="-323443316#2_2" pos="80.92" freq="900.00" file="out.xml">
        <param key="C" value="48.112131, 11.548428"/>
    </e1Detector>
    <e1Detector id="e1Detector_-32958394#2_0_802" name="10207004" lane="-32958394#2_0" pos="25.70" freq="900.00" file="out.xml">
        <param key="C" value="48.108192, 11.604190"/>
    </e1Detector>
    <e1Detector id="e1Detector_-32958394#2_1_803" name="10207005" lane="-32958394#2_1" pos="26.03" freq="900.00" file="out.xml">
        <param key="C" value="48.108192, 11.604149"/>
    </e1Detector>
    <e1Detector id="e1Detector_-32958394#2_2_801" name="10207006" lane="-32958394#2_2" pos="50.90" freq="900.00" file="out.xml" friendlyPos="1">
        <param key="C" value="48.108467, 11.604091"/>
    </e1Detector>
    <e1Detector id="e1Detector_-334724792_0_336" name="10775005" lane="-334724792_0" pos="690.57" freq="900.00" file="out.xml">
        <param key="C" value="48.178423, 11.567330"/>
    </e1Detector>
    <e1Detector id="e1Detector_-334724792_0_348" name="10791003" lane="-334724792_0" pos="265.01" freq="900.00" file="out.xml">
        <param key="C" value="48.182226, 11.566793"/>
    </e1Detector>
    <e1Detector id="e1Detector_-340783854_0_894" name="10246003" lane="-340783854_0" pos="581.74" freq="900.00" file="out.xml">
        <param key="C" value="48.151934, 11.528074"/>
    </e1Detector>
    <e1Detector id="e1Detector_-34182814_0_270" name="10490001" lane="-34182814_0" pos="181.22" freq="900.00" file="out.xml">
        <param key="C" value="48.115198, 11.576869"/>
    </e1Detector>
    <e1Detector id="e1Detector_-34182814_1_271" name="10490002" lane="-34182814_1" pos="180.77" freq="900.00" file="out.xml">
        <param key="C" value="48.115207, 11.576815"/>
    </e1Detector>
    <e1Detector id="e1Detector_-34567685#1_0_574" name="10149004" lane="-34567685#1_0" pos="7.13" freq="900.00" file="out.xml">
        <param key="C" value="48.169526, 11.532426"/>
    </e1Detector>
    <e1Detector id="e1Detector_-34567685#1_1_575" name="10149005" lane="-34567685#1_1" pos="6.89" freq="900.00" file="out.xml">
        <param key="C" value="48.169556, 11.532415"/>
    </e1Detector>
    <e1Detector id="e1Detector_-35108720#3_0_101" name="10666001" lane="-35108720#3_0" pos="492.29" freq="900.00" file="out.xml">
        <param key="C" value="48.100925, 11.625805"/>
    </e1Detector>
    <e1Detector id="e1Detector_-3654343_0_799" name="10203005" lane="-3654343_0" pos="187.50" freq="900.00" file="out.xml" friendlyPos="1">
        <param key="C" value="48.133800, 11.574049"/>
    </e1Detector>
    <e1Detector id="e1Detector_-366231807#3_0_39" name="10633002" lane="-366231807#3_0" pos="132.60" freq="900.00" file="out.xml">
        <param key="C" value="48.121765, 11.578722"/>
    </e1Detector>
    <e1Detector id="e1Detector_-366721040#2_0_751" name="10941001" lane="-366721040#2_0" pos="106.10" freq="900.00" file="out.xml">
        <param key="C" value="48.112288, 11.553172"/>
    </e1Detector>
    <e1Detector id="e1Detector_-366721040#2_1_750" name="10941002" lane="-366721040#2_1" pos="110.72" freq="900.00" file="out.xml">
        <param key="C" value="48.112319, 11.553216"/>
    </e1Detector>
    <e1Detector id="e1Detector_-368992148_0_378" name="10808012" lane="-368992148_0" pos="330.93" freq="900.00" file="out.xml">
        <param key="C" value="48.112976, 11.533766"/>
    </e1Detector>
    <e1Detector id="e1Detector_-36914644_0_249" name="10069005" lane="-36914644_0" pos="405.39" freq="900.00" file="out.xml">
        <param key="C" value="48.153696, 11.582705"/>
    </e1Detector>
    <e1Detector id="e1Detector_-36914644_1_250" name="10069006" lane="-36914644_1" pos="405.04" freq="900.00" file="out.xml">
        <param key="C" value="48.153689, 11.582743"/>
    </e1Detector>
    <e1Detector id="e1Detector_-372036333#2_0_1377" name="10377002" lane="-372036333#2_0" pos="415.54" freq="900.00" file="out.xml" friendlyPos="1">
        <param key="C" value="48.132865, 11.534464"/>
    </e1Detector>
    <e1Detector id="e1Detector_-37427647#2_0_595" name="10155012" lane="-37427647#2_0" pos="83.36" freq="900.00" file="out.xml">
        <param key="C" value="48.116866, 11.534899"/>
    </e1Detector>
    <e1Detector id="e1Detector_-37665392_0_235" name="10061001" lane="-37665392_0" pos="22.96" freq="900.00" file="out.xml">
        <param key="C" value="48.124251, 11.564411"/>
    </e1Detector>
    <e1Detector id="e1Detector_-37665392_1_236" name="10061002" lane="-37665392_1" pos="45.31" freq="900.00" file="out.xml">
        <param key="C" value="48.124334, 11.564134"/>
    </e1Detector>
    <e1Detector id="e1Detector_-37665415#2_0_227" name="10058005" lane="-37665415#2_0" pos="342.07" freq="900.00" file="out.xml">
        <param key="C" value="48.122917, 11.567781"/>
    </e1Detector>
    <e1Detector id="e1Detector_-37665415#2_0_289" name="10495004" lane="-37665415#2_0" pos="202.43" freq="900.00" file="out.xml">
        <param key="C" value="48.121939, 11.568948"/>
    </e1Detector>
    <e1Detector id="e1Detector_-37665415#2_1_228" name="10058006" lane="-37665415#2_1" pos="342.92" freq="900.00" file="out.xml">
        <param key="C" value="48.122895, 11.567745"/>
    </e1Detector>
    <e1Detector id="e1Detector_-37665502#6_0_230" name="10059005" lane="-37665502#6_0" pos="320.13" freq="900.00" file="out.xml">
        <param key="C" value="48.121030, 11.571588"/>
    </e1Detector>
    <e1Detector id="e1Detector_-37665502#6_0_233" name="10060003" lane="-37665502#6_0" pos="18.21" freq="900.00" file="out.xml">
        <param key="C" value="48.119619, 11.575046"/>
    </e1Detector>