<tazs>
    <taz id="9162000" edges="33196720"/>
    <taz id="9162067" edges="18959384 292960292 145431468 350873892 143927076 24462849#0 112958696#0.582 -96952512 143927077 -30917885#1"/>
    <taz id="9162068" edges="38057574 4662600#0 4698887#0 97456091#0 32736022 -316433712#2 31173302#0 8058988#0 -31173021#1 146234215#0"/>
    <taz id="9162069" edges="32854656#0 147560035#0 260756029#0 260756042#0 260756027#0 260756028#0 33531160"/>
    <taz id="9162070" edges="37740361#0 230359741#0 -260510509#2 42150870#0 -32958393 260345647 -32958394#2 -42150869 -260510505"/>
    <taz id="9162071" edges="149755008#0 165643522 -144412085#1 144412085#0 292953660#0 40991923#0 291481086#0 144410972#0 144410972#0.784 151513693#0"/>
    <taz id="9162072" edges="-37724033#2 115956658 -26753700#1 -147926678#4 264955140#0 3811203#0 264955142 264955141#0 26753697 264964142"/>
    <taz id="9162140" edges="-266415534 -69486331#1 -69486332 364988555#0 223981874#0 365075174 466392843 365075176#0 4288176 292944720"/>
    <taz id="9162074" edges="4513896 30816698#0 4003243#0 310707190#0 192283557 30817196 310821943#0 151850904#0 316052843#0 151636223#0"/>
    <taz id="9162075" edges="313579591 292767092 292767093 124766999 69811613#0 313579596 292950392#0 316009881#0 316009875 151082431#0"/>
    <taz id="9162078" edges="243452654#0 141432703#0 146504815 37897189 4008984"/>
    <taz id="9162084" edges="33196724 -150831241 149873839#0 155580139 341311817#0 33130041 303993535#0 35320147 51783734#1 33531622"/>
    <taz id="9162085" edges="112202577#0 145178215#0 155580614 303993533 303993534 -137242321 159491263 -514345573#2 169254467#0 174960048"/>
    <taz id="9162087" edges="149935566 -186553873 30616063#0 360485248 37280850 186553873 -490386700"/>
    <taz id="9162090" edges="51537935 -37665415#2 37665416#0 -37665502#6"/>
    <taz id="9162091" edges="-151782111#2 -396402587 368992147 -315156367#2 -49023442 151782111#0 -45511958#1 -368992148 252359169#0 385508281"/>
    <taz id="9162092" edges="231852593#0 231852594#0 -42150872 42150872 38562405#0 231855939#0 143120475#0 43331014 231852589 231852591"/>
    <taz id="9162025" edges="31231595#0 120848919#0 260756034#0 147668927#0 260756032"/>
    <taz id="9162159" edges="8058983 158689345#0 367397946#0 366742857#0 252729686#0"/>
    <taz id="9162160" edges="315202568#0 37665697 157798419 37665696#0 315220267#0 274817953 4074939#0 -304423860#1 315202575#1 489893624"/>
    <taz id="9162094" edges="93072396 30816876#0 31344436 -30816922#3 127977585 540351575 392219838#0 -80239245 151866851#0 -60363514"/>
    <taz id="9162161" edges="622091750#0 148857890#0 -622091750#2 47977723#0 -173041358#2 145569742#3 37665452 622091744 -621817220 168719672"/>
    <taz id="9162162" edges="-19565906#1 205348045 4062205 311374931 146631481#0 127237588 3819283#0 311747333 445351846 19565906#0"/>
    <taz id="9162095" edges="49605509#0 127977584#0 338649272#0 -300559237#2 47634455#0 376107897 26416346 133729494 300559237#0"/>
    <taz id="9162028" edges="49613026#0 -260510511 -113078530#1 4231198#0 -311181481 -260510502 41532482"/>
    <taz id="9162163" edges="42750258#0 475109925 -310719822 394489297 310823109#0 27822841#1 475919644 151522862 310823111#0 310823110"/>
    <taz id="9162099" edges="-366742858 366742858 315156362 37427646 436481055"/>
    <taz id="9162101" edges="298829443 -19446386 186287089 4005733#0 19446386 151542344#0 -86414062 3960303 19440014#0 4673772#0"/>
    <taz id="9162104" edges="366231825 -32459667#2 155580610 155580612 51783735#0 -51783735#3 232583254 151764837 32459666 -315825107"/>
    <taz id="9162038" edges="33131466#0 144135876 144135879 144278190#0 4592522 145036934#0 23462075"/>
    <taz id="9162105" edges="142756676#0"/>
    <taz id="9162108" edges="361383375 -266415540#2 -40108565#1 -629519738 129811320#0 40108565#0 266415539#0 477942365#0 -629517357 27145307#0"/>
    <taz id="9162109" edges="39032513 55969412 -148874391 48240675 238157144 315202569 -48240675 -39168607 148874391 -477942368#1"/>
    <taz id="9162043" edges="155572668 155572665 -370739441#2 350873888#0 155572673 366231811 145628205#0 315220257 35147152#0 -366231813"/>
    <taz id="9162110" edges="323443314 366721052#0 323443316#0 -4008976#1 -366721040#2 479131611 -323443314 192647151#0 -481256911 157653354"/>
    <taz id="9162111" edges="231852587#0 231855937#0 231851818#0 37429908#0 231855938#0 292773767 32854653#0 260756036#0 231855936 314501995#0"/>
    <taz id="9162044" edges="37665428 -622091748 4591432#0 134123085#0 150829376 -37665392 -4591432#3 37665392 315825102#0 37665394#0"/>
    <taz id="9162112" edges="34114236 4701144 315224431#0 41734239 265416844#0 315224428 265416844#3 315224432 311644249#0 50220179#0"/>
    <taz id="9162045" edges="-4592193#1 -229591676 33487042 -4592194 151456184#0 384030958 4592194"/>
    <taz id="9162113" edges="-300559240#1 25402988#0 -42446214#1 552105041 397534184#0 49602857#0 -249275877 300559240#0 71143057#0 552105042"/>
    <taz id="9162046" edges="27149711 365100761#0 29544193 4287960#0 292944723 151082432 -365100760 -29544193 365100760 -151082434"/>
    <taz id="9162047" edges="33487057#0 316068183#0 151847531#0"/>
    <taz id="9162048" edges="4471061#0 27149710 71824375#0 4585960#0 292946857#0 310827994 50461240#0"/>
    <taz id="9162122" edges="144435600#0 37666023#0 230251450#0 144435600#2 230251448"/>
    <taz id="9162123" edges="264964139#0 230254193 147562130#0 189183931#0 27417810 311747330#0 -113075381#1 114254843#0 230254195 189183930"/>
    <taz id="9162124" edges="146256534#1 127237582 230254198 230139223#0 230254197#0"/>
    <taz id="9162125" edges="230251443 151406643#0 230251445 230251449#0 35039839#3 230122234#0 -146645330 -53298708#2 53298708#0 106412904"/>
    <taz id="9162058" edges="310832978#0 -151996487 4003056 4020176 42750221#0 51087187#1 31351672 126760944 30816696"/>
    <taz id="9162126" edges="230254192 260345661 146256534#0 49915866 -52719994 230254196#0 230252871 230254188 -260345663 260345653#0"/>
    <taz id="9162059" edges="192283556#1 394489296#0 577790465 192283556#0 310819636#0 152524928#0 292598633 152541393 577790464 4288230"/>
    <taz id="9162127" edges="-35108719#3 -35108720#3 8069179#0 35108719#3 35108720#0 -30323347#0 -8069179#2 30323347#0 49712177#0 -53178982.666"/>
    <taz id="9162060" edges="265616996#0 311337461 151786524#0 42484131#0 4055405 -88714905#4 39378780#0 36966110 376107908#0 549023362"/>
    <taz id="9162061" edges="549021913 4592386#0 37666025#0 313576545#0 37666024#0 310707189#0 -310707186 310707192#0 -310707192#1 -310707189#1"/>
    <taz id="9162129" edges="-37896952 -26753697 24462851 94450320#0 189184129 335959354 37896952"/>
    <taz id="9162062" edges="38868058#0 151996168 30816863 -39322228#4 -151996169 410655508 540351567 31344435 -410655508"/>
    <taz id="9162064" edges="4592385 4592556#0 86969970 134941607#0 313579584#0 58872097 51775138#0 -313579588 -51787589 241324029#0"/>
    <taz id="9162065" edges="241674898 151754277#0 4000480 34160676#0 86334703#1 -310729848#1 -97241128 123499640 51109541#0 40317919#0"/>
    <taz id="9162132" edges="29448442#0 -29448442#1"/>
    <taz id="9162066" edges="118282022#0 151263120 40317918 292960298#0 28338981 149929927#0 112958699 45602304 151263118 257527112#0"/>
    <taz id="9162133" edges="506242264 324849172 324849172.245 60772642 -324849171 366721042#1 -324849171.403 -506242264 -60772642 126189655#1"/>
	<taz id="9162063" edges="39378780#0 42446216#1 -30816922#3 -155603789#1 39322451#0"/>
</tazs>
