<additional>
	<e1Detector id="e1Detector_#EdgeID37_0" lane="#EdgeID37_0" pos="-200" freq="900" file="out.xml"/>
	<e1Detector id="e1Detector_#EdgeID37_1" lane="#EdgeID37_1" pos="-200" freq="900" file="out.xml"/>
	<e1Detector id="e1Detector_#EdgeID37_2" lane="#EdgeID37_2" pos="-200" freq="900" file="out.xml"/>
	<e1Detector id="e1Detector_#EdgeID37_3" lane="#EdgeID37_3" pos="-200" freq="900" file="out.xml"/>
	<e1Detector id="e1Detector_#EdgeID32_0" lane="#EdgeID32_0" pos="-200" freq="900" file="out.xml"/>
	<e1Detector id="e1Detector_#EdgeID32_1" lane="#EdgeID32_1" pos="-200" freq="900" file="out.xml"/>
	<e1Detector id="e1Detector_#EdgeID43_0" lane="#EdgeID43_0" pos="-200" freq="900" file="out.xml"/>
	<e1Detector id="e1Detector_#EdgeID43_1" lane="#EdgeID43_1" pos="-200" freq="900" file="out.xml"/>
	<e1Detector id="e1Detector_#EdgeID64_0" lane="#EdgeID64_0" pos="-200" freq="900" file="out.xml"/>
	<e1Detector id="e1Detector_#EdgeID11_0" lane="#EdgeID11_0" pos="-200" freq="900" file="out.xml"/>
	<e1Detector id="e1Detector_#EdgeID11_1" lane="#EdgeID11_1" pos="-200" freq="900" file="out.xml"/>
	<e1Detector id="e1Detector_#EdgeID11_2" lane="#EdgeID11_2" pos="-200" freq="900" file="out.xml"/>
	<e1Detector id="e1Detector_#EdgeID27_0" lane="#EdgeID27_0" pos="-200" freq="900" file="out.xml"/>
	<e1Detector id="e1Detector_#EdgeID27_1" lane="#EdgeID27_1" pos="-200" freq="900" file="out.xml"/>
	<e1Detector id="e1Detector_#EdgeID59_0" lane="#EdgeID59_0" pos="-200" freq="900" file="out.xml"/>
	<e1Detector id="e1Detector_#EdgeID12_0" lane="#EdgeID12_0" pos="-200" freq="900" file="out.xml"/>
	<e1Detector id="e1Detector_#EdgeID7_0" lane="#EdgeID7_0" pos="-200" freq="900" file="out.xml"/>
	<e1Detector id="e1Detector_#EdgeID7_1" lane="#EdgeID7_1" pos="-200" freq="900" file="out.xml"/>
	<e1Detector id="e1Detector_#EdgeID7_2" lane="#EdgeID7_2" pos="-200" freq="900" file="out.xml"/>
	<e1Detector id="e1Detector_#EdgeID7_3" lane="#EdgeID7_3" pos="-200" freq="900" file="out.xml"/>
	<e1Detector id="e1Detector_#EdgeID61_0" lane="#EdgeID61_0" pos="-200" freq="900" file="out.xml"/>
	<e1Detector id="e1Detector_#EdgeID16_0" lane="#EdgeID16_0" pos="-200" freq="900" file="out.xml"/>
	<e1Detector id="e1Detector_#EdgeID69_0" lane="#EdgeID69_0" pos="-200" freq="900" file="out.xml"/>
	<e1Detector id="e1Detector_#EdgeID1_0" lane="#EdgeID1_0" pos="-200" freq="900" file="out.xml"/>
	<e1Detector id="e1Detector_#EdgeID1_1" lane="#EdgeID1_1" pos="-200" freq="900" file="out.xml"/>
	<e1Detector id="e1Detector_#EdgeID1_2" lane="#EdgeID1_2" pos="-200" freq="900" file="out.xml"/>
	<e1Detector id="e1Detector_#EdgeID1_3" lane="#EdgeID1_3" pos="-200" freq="900" file="out.xml"/>
	<e1Detector id="e1Detector_#EdgeID24_0" lane="#EdgeID24_0" pos="-200" freq="900" file="out.xml"/>
	<e1Detector id="e1Detector_#EdgeID28_0" lane="#EdgeID28_0" pos="-200" freq="900" file="out.xml"/>
	<e1Detector id="e1Detector_#EdgeID28_1" lane="#EdgeID28_1" pos="-200" freq="900" file="out.xml"/>
	<e1Detector id="e1Detector_#EdgeID75_0" lane="#EdgeID75_0" pos="-200" freq="900" file="out.xml"/>
	<e1Detector id="e1Detector_#EdgeID66_0" lane="#EdgeID66_0" pos="-200" freq="900" file="out.xml"/>
	<e1Detector id="e1Detector_#EdgeID39_0" lane="#EdgeID39_0" pos="-200" freq="900" file="out.xml"/>
	<e1Detector id="e1Detector_#EdgeID63_0" lane="#EdgeID63_0" pos="-200" freq="900" file="out.xml"/>
	<e1Detector id="e1Detector_#EdgeID10_0" lane="#EdgeID10_0" pos="-200" freq="900" file="out.xml"/>
	<e1Detector id="e1Detector_#EdgeID8_0" lane="#EdgeID8_0" pos="-200" freq="900" file="out.xml"/>
	<e1Detector id="e1Detector_#EdgeID8_1" lane="#EdgeID8_1" pos="-200" freq="900" file="out.xml"/>
	<e1Detector id="e1Detector_#EdgeID8_2" lane="#EdgeID8_2" pos="-200" freq="900" file="out.xml"/>
	<e1Detector id="e1Detector_#EdgeID53_0" lane="#EdgeID53_0" pos="-200" freq="900" file="out.xml"/>
	<e1Detector id="e1Detector_#EdgeID4_0" lane="#EdgeID4_0" pos="-200" freq="900" file="out.xml"/>
	<e1Detector id="e1Detector_#EdgeID74_0" lane="#EdgeID74_0" pos="-200" freq="900" file="out.xml"/>
	<e1Detector id="e1Detector_#EdgeID29_0" lane="#EdgeID29_0" pos="-200" freq="900" file="out.xml"/>
	<e1Detector id="e1Detector_#EdgeID49_0" lane="#EdgeID49_0" pos="-200" freq="900" file="out.xml"/>
	<e1Detector id="e1Detector_#EdgeID46_0" lane="#EdgeID46_0" pos="-200" freq="900" file="out.xml"/>
	<e1Detector id="e1Detector_#EdgeID46_1" lane="#EdgeID46_1" pos="-200" freq="900" file="out.xml"/>
	<e1Detector id="e1Detector_#EdgeID40_0" lane="#EdgeID40_0" pos="-200" freq="900" file="out.xml"/>
	<e1Detector id="e1Detector_#EdgeID13_0" lane="#EdgeID13_0" pos="-200" freq="900" file="out.xml"/>
	<e1Detector id="e1Detector_#EdgeID13_1" lane="#EdgeID13_1" pos="-200" freq="900" file="out.xml"/>
	<e1Detector id="e1Detector_#EdgeID33_0" lane="#EdgeID33_0" pos="-200" freq="900" file="out.xml"/>
	<e1Detector id="e1Detector_#EdgeID25_0" lane="#EdgeID25_0" pos="-200" freq="900" file="out.xml"/>
	<e1Detector id="e1Detector_#EdgeID25_1" lane="#EdgeID25_1" pos="-200" freq="900" file="out.xml"/>
	<e1Detector id="e1Detector_#EdgeID62_0" lane="#EdgeID62_0" pos="-200" freq="900" file="out.xml"/>
	<e1Detector id="e1Detector_#EdgeID3_0" lane="#EdgeID3_0" pos="-200" freq="900" file="out.xml"/>
	<e1Detector id="e1Detector_#EdgeID3_1" lane="#EdgeID3_1" pos="-200" freq="900" file="out.xml"/>
	<e1Detector id="e1Detector_#EdgeID3_2" lane="#EdgeID3_2" pos="-200" freq="900" file="out.xml"/>
	<e1Detector id="e1Detector_#EdgeID3_3" lane="#EdgeID3_3" pos="-200" freq="900" file="out.xml"/>
	<e1Detector id="e1Detector_#EdgeID56_0" lane="#EdgeID56_0" pos="-200" freq="900" file="out.xml"/>
	<e1Detector id="e1Detector_#EdgeID56_1" lane="#EdgeID56_1" pos="-200" freq="900" file="out.xml"/>
	<e1Detector id="e1Detector_#EdgeID56_2" lane="#EdgeID56_2" pos="-200" freq="900" file="out.xml"/>
	<e1Detector id="e1Detector_#EdgeID56_3" lane="#EdgeID56_3" pos="-200" freq="900" file="out.xml"/>
	<e1Detector id="e1Detector_#EdgeID72_0" lane="#EdgeID72_0" pos="-200" freq="900" file="out.xml"/>
	<e1Detector id="e1Detector_#EdgeID36_0" lane="#EdgeID36_0" pos="-200" freq="900" file="out.xml"/>
	<e1Detector id="e1Detector_#EdgeID54_0" lane="#EdgeID54_0" pos="-200" freq="900" file="out.xml"/>
	<e1Detector id="e1Detector_#EdgeID54_1" lane="#EdgeID54_1" pos="-200" freq="900" file="out.xml"/>
	<e1Detector id="e1Detector_#EdgeID54_2" lane="#EdgeID54_2" pos="-200" freq="900" file="out.xml"/>
	<e1Detector id="e1Detector_#EdgeID54_3" lane="#EdgeID54_3" pos="-200" freq="900" file="out.xml"/>
	<e1Detector id="e1Detector_#EdgeID44_0" lane="#EdgeID44_0" pos="-200" freq="900" file="out.xml"/>
	<e1Detector id="e1Detector_#EdgeID58_0" lane="#EdgeID58_0" pos="-200" freq="900" file="out.xml"/>
</additional>