<configuration>
	<input>
		<net-file value="network.net.xml"/>
		<route-files value="test_trips.trips.xml"/>
		<additional-files value='detectors.add.xml'/>
	</input>
	<time>
		<begin value="28000"/>
		<end value="34000"/>
	</time>
</configuration>