<?xml version="1.0" encoding="UTF-8"?>

<!-- generated on 10/31/18 12:22:08 by Eclipse SUMO netedit Version 1.0.1
<configuration xmlns:xsi="http://www.w3.org/2001/XMLSchema-instance" xsi:noNamespaceSchemaLocation="http://sumo.dlr.de/xsd/netconvertConfiguration.xsd">

    <input>
        <sumo-net-file value="C:\Users\TSE-PC\LRZ%20Sync+Share\Munich_network\SiouxFalls\upd_MESO_SiouxFalls.net.xml"/>
    </input>

    <output>
        <output-file value="C:\Users\TSE-PC\LRZ%20Sync+Share\Munich_network\SiouxFalls\upd_MESO_SiouxFalls.net.xml"/>
    </output>

    <processing>
        <offset.disable-normalization value="true"/>
        <lefthand value="false"/>
    </processing>

    <junctions>
        <no-turnarounds value="true"/>
        <junctions.corner-detail value="5"/>
        <junctions.limit-turn-speed value="5.5"/>
        <rectangular-lane-cut value="false"/>
    </junctions>

    <pedestrian>
        <walkingareas value="false"/>
    </pedestrian>

</configuration>
-->

<net version="1.0" junctionCornerDetail="5" limitTurnSpeed="5.50" xmlns:xsi="http://www.w3.org/2001/XMLSchema-instance" xsi:noNamespaceSchemaLocation="http://sumo.dlr.de/xsd/net_file.xsd">

    <location netOffset="-3333.33,-3333.33" convBoundary="0.00,0.00,24666.67,30666.67" origBoundary="3333.33,3333.33,28000.00,34000.00" projParameter="!"/>

    <edge id=":1_0" function="internal">
        <lane id=":1_0_0" index="0" speed="12.50" length="36.15" shape="12.80,30677.87 4.83,30675.53 -2.95,30669.62 -8.86,30661.84 -11.20,30653.87"/>
    </edge>
    <edge id=":1_1" function="internal">
        <lane id=":1_1_0" index="0" speed="11.76" length="31.85" shape="12.80,30674.67 5.33,30672.83 -1.35,30668.02 -6.16,30661.34 -8.00,30653.87"/>
    </edge>
    <edge id=":1_2" function="internal">
        <lane id=":1_2_0" index="0" speed="11.12" length="28.38" shape="12.80,30671.47 5.10,30670.37 -0.40,30667.07 -3.70,30661.57 -4.80,30653.87"/>
    </edge>
    <edge id=":1_3" function="internal">
        <lane id=":1_3_0" index="0" speed="10.10" length="23.22" shape="12.80,30668.27 6.50,30667.37 2.00,30664.67 -0.70,30660.17 -1.60,30653.87"/>
    </edge>
    <edge id=":1_4" function="internal">
        <lane id=":1_4_0" index="0" speed="3.65" length="2.56" shape="12.80,30668.27 11.60,30667.47 11.20,30666.67 11.30,30666.47"/>
    </edge>
    <edge id=":1_10" function="internal">
        <lane id=":1_10_0" index="0" speed="3.65" length="2.12" shape="11.30,30666.47 11.60,30665.87 12.80,30665.07"/>
    </edge>
    <edge id=":1_5" function="internal">
        <lane id=":1_5_0" index="0" speed="3.90" length="2.58" shape="11.20,30653.87 11.30,30654.57 11.60,30655.07 12.10,30655.37 12.80,30655.47"/>
    </edge>
    <edge id=":1_6" function="internal">
        <lane id=":1_6_0" index="0" speed="6.08" length="7.74" shape="8.00,30653.87 8.30,30655.97 9.20,30657.47 10.70,30658.37 12.80,30658.67"/>
    </edge>
    <edge id=":1_7" function="internal">
        <lane id=":1_7_0" index="0" speed="7.66" length="12.90" shape="4.80,30653.87 5.30,30657.37 6.80,30659.87 9.30,30661.37 12.80,30661.87"/>
    </edge>
    <edge id=":1_8" function="internal">
        <lane id=":1_8_0" index="0" speed="8.96" length="18.06" shape="1.60,30653.87 2.30,30658.77 4.40,30662.27 7.90,30664.37 12.80,30665.07"/>
    </edge>
    <edge id=":1_9" function="internal">
        <lane id=":1_9_0" index="0" speed="3.65" length="2.08" shape="1.60,30653.87 0.80,30655.07 0.23,30655.36"/>
    </edge>
    <edge id=":1_11" function="internal">
        <lane id=":1_11_0" index="0" speed="3.65" length="2.59" shape="0.23,30655.36 0.00,30655.47 -0.80,30655.07 -1.60,30653.87"/>
    </edge>
    <edge id=":10_0" function="internal">
        <lane id=":10_0_0" index="0" speed="6.51" length="9.03" shape="11328.53,18010.40 11328.18,18007.95 11327.13,18006.20 11325.38,18005.15 11322.93,18004.80"/>
    </edge>
    <edge id=":10_1" function="internal">
        <lane id=":10_1_0" index="0" speed="26.82" length="21.97" shape="11328.53,18010.40 11328.53,17988.43"/>
        <lane id=":10_1_1" index="1" speed="26.82" length="21.97" shape="11331.73,18010.40 11331.73,17988.43"/>
    </edge>
    <edge id=":10_3" function="internal">
        <lane id=":10_3_0" index="0" speed="13.64" length="7.11" shape="11331.73,18010.40 11332.61,18004.92 11333.33,18003.54"/>
    </edge>
    <edge id=":10_4" function="internal">
        <lane id=":10_4_0" index="0" speed="10.19" length="6.17" shape="11331.73,18010.40 11332.80,18005.15 11333.33,18004.53"/>
    </edge>
    <edge id=":10_5" function="internal">
        <lane id=":10_5_0" index="0" speed="3.65" length="2.34" shape="11331.73,18010.40 11332.53,18009.20 11333.33,18008.80"/>
    </edge>
    <edge id=":10_27" function="internal">
        <lane id=":10_27_0" index="0" speed="13.64" length="18.28" shape="11333.33,18003.54 11335.26,17999.80 11339.67,17995.04 11345.84,17990.63"/>
    </edge>
    <edge id=":10_28" function="internal">
        <lane id=":10_28_0" index="0" speed="10.19" length="17.48" shape="11333.33,18004.53 11336.02,18001.40 11341.38,17999.15 11348.88,17998.40"/>
    </edge>
    <edge id=":10_29" function="internal">
        <lane id=":10_29_0" index="0" speed="3.65" length="2.34" shape="11333.33,18008.80 11334.13,18009.20 11334.93,18010.40"/>
    </edge>
    <edge id=":10_6" function="internal">
        <lane id=":10_6_0" index="0" speed="8.41" length="15.80" shape="11348.88,18001.60 11344.18,18002.15 11340.82,18003.80 11338.80,18006.55 11338.13,18010.40"/>
    </edge>
    <edge id=":10_7" function="internal">
        <lane id=":10_7_0" index="0" speed="26.82" length="26.17" shape="11348.88,18001.60 11344.12,18002.10 11337.78,18003.20 11330.50,18004.30 11322.93,18004.80"/>
    </edge>
    <edge id=":10_8" function="internal">
        <lane id=":10_8_0" index="0" speed="10.37" length="24.54" shape="11348.88,18001.60 11341.38,18000.78 11336.02,17998.31 11332.80,17994.19 11331.73,17988.43"/>
    </edge>
    <edge id=":10_9" function="internal">
        <lane id=":10_9_0" index="0" speed="7.05" length="19.25" shape="11348.88,18001.60 11342.98,18000.61 11340.40,17998.04 11341.29,17994.51 11345.84,17990.63"/>
    </edge>
    <edge id=":10_10" function="internal">
        <lane id=":10_10_0" index="0" speed="3.65" length="4.67" shape="11348.88,18001.60 11347.68,18000.80 11347.28,18000.00 11347.68,17999.20 11348.88,17998.40"/>
    </edge>
    <edge id=":10_11" function="internal">
        <lane id=":10_11_0" index="0" speed="5.51" length="11.05" shape="11347.49,17993.37 11344.43,17995.57 11343.65,17997.14 11345.13,17998.09 11348.88,17998.40"/>
    </edge>
    <edge id=":10_12" function="internal">
        <lane id=":10_12_0" index="0" speed="12.25" length="20.37" shape="11347.49,17993.37 11343.39,17996.54 11340.47,18000.44 11338.71,18005.06 11338.13,18010.40"/>
    </edge>
    <edge id=":10_13" function="internal">
        <lane id=":10_13_0" index="0" speed="22.83" length="26.17" shape="11347.49,17993.37 11343.25,17995.74 11337.35,17998.45 11330.38,18000.68 11322.93,18001.60"/>
    </edge>
    <edge id=":10_14" function="internal">
        <lane id=":10_14_0" index="0" speed="8.42" length="22.36" shape="11347.49,17993.37 11340.59,17996.61 11335.67,17996.86 11332.71,17994.14 11331.73,17988.43"/>
    </edge>
    <edge id=":10_15" function="internal">
        <lane id=":10_15_0" index="0" speed="3.65" length="4.67" shape="11347.49,17993.37 11346.05,17993.30 11345.29,17992.82 11345.23,17991.93 11345.84,17990.63"/>
    </edge>
    <edge id=":10_16" function="internal">
        <lane id=":10_16_0" index="0" speed="6.05" length="10.81" shape="11338.13,17988.43 11338.61,17991.13 11340.06,17992.39 11342.47,17992.22 11345.84,17990.63"/>
    </edge>
    <edge id=":10_17" function="internal">
        <lane id=":10_17_0" index="0" speed="8.64" length="16.72" shape="11338.13,17988.43 11338.80,17992.79 11340.82,17995.91 11344.18,17997.78 11348.88,17998.40"/>
    </edge>
    <edge id=":10_18" function="internal">
        <lane id=":10_18_0" index="0" speed="26.82" length="21.97" shape="11338.13,17988.43 11338.13,18010.40"/>
        <lane id=":10_18_1" index="1" speed="26.82" length="21.97" shape="11334.93,17988.43 11334.93,18010.40"/>
    </edge>
    <edge id=":10_20" function="internal">
        <lane id=":10_20_0" index="0" speed="9.47" length="7.58" shape="11334.93,17988.43 11334.18,17994.19 11333.33,17995.75"/>
    </edge>
    <edge id=":10_21" function="internal">
        <lane id=":10_21_0" index="0" speed="3.65" length="2.34" shape="11334.93,17988.43 11334.13,17989.63 11333.33,17990.03"/>
    </edge>
    <edge id=":10_30" function="internal">
        <lane id=":10_30_0" index="0" speed="9.47" length="12.72" shape="11333.33,17995.75 11331.93,17998.31 11328.18,18000.78 11322.93,18001.60"/>
    </edge>
    <edge id=":10_31" function="internal">
        <lane id=":10_31_0" index="0" speed="3.65" length="2.34" shape="11333.33,17990.03 11332.53,17989.63 11331.73,17988.43"/>
    </edge>
    <edge id=":10_22" function="internal">
        <lane id=":10_22_0" index="0" speed="6.81" length="9.99" shape="11322.93,17995.20 11325.38,17994.78 11327.13,17993.51 11328.18,17991.39 11328.53,17988.43"/>
    </edge>
    <edge id=":10_23" function="internal">
        <lane id=":10_23_0" index="0" speed="21.68" length="23.58" shape="11322.93,17995.20 11330.13,17994.85 11336.53,17993.88 11341.86,17992.43 11345.84,17990.63"/>
    </edge>
    <edge id=":10_24" function="internal">
        <lane id=":10_24_0" index="0" speed="26.82" length="25.95" shape="11322.93,17998.40 11348.88,17998.40"/>
    </edge>
    <edge id=":10_25" function="internal">
        <lane id=":10_25_0" index="0" speed="9.26" length="19.35" shape="11322.93,17998.40 11328.18,17999.15 11331.93,18001.40 11334.18,18005.15 11334.93,18010.40"/>
    </edge>
    <edge id=":10_26" function="internal">
        <lane id=":10_26_0" index="0" speed="3.65" length="4.67" shape="11322.93,17998.40 11324.13,17999.20 11324.53,18000.00 11324.13,18000.80 11322.93,18001.60"/>
    </edge>
    <edge id=":11_0" function="internal">
        <lane id=":11_0_0" index="0" speed="7.33" length="11.73" shape="5331.73,18010.40 5331.38,18006.55 5330.33,18003.80 5328.58,18002.15 5326.13,18001.60"/>
    </edge>
    <edge id=":11_1" function="internal">
        <lane id=":11_1_0" index="0" speed="26.82" length="20.80" shape="5331.73,18010.40 5331.73,17989.60"/>
    </edge>
    <edge id=":11_2" function="internal">
        <lane id=":11_2_0" index="0" speed="8.67" length="16.85" shape="5331.73,18010.40 5332.28,18005.15 5333.93,18001.40 5336.68,17999.15 5340.53,17998.40"/>
    </edge>
    <edge id=":11_3" function="internal">
        <lane id=":11_3_0" index="0" speed="3.65" length="4.67" shape="5331.73,18010.40 5332.53,18009.20 5333.33,18008.80 5334.13,18009.20 5334.93,18010.40"/>
    </edge>
    <edge id=":11_4" function="internal">
        <lane id=":11_4_0" index="0" speed="6.51" length="9.03" shape="5340.53,18004.80 5338.08,18005.15 5336.33,18006.20 5335.28,18007.95 5334.93,18010.40"/>
    </edge>
    <edge id=":11_5" function="internal">
        <lane id=":11_5_0" index="0" speed="26.82" length="14.83" shape="5340.53,18004.80 5335.87,18004.30 5332.44,18003.20 5329.45,18002.10 5326.13,18001.60"/>
    </edge>
    <edge id=":11_6" function="internal">
        <lane id=":11_6_0" index="0" speed="8.67" length="5.26" shape="5340.53,18001.60 5336.68,18000.85 5335.64,18000.00"/>
    </edge>
    <edge id=":11_7" function="internal">
        <lane id=":11_7_0" index="0" speed="3.65" length="2.34" shape="5340.53,18001.60 5339.33,18000.80 5338.93,18000.00"/>
    </edge>
    <edge id=":11_16" function="internal">
        <lane id=":11_16_0" index="0" speed="8.67" length="11.59" shape="5335.64,18000.00 5333.93,17998.60 5332.28,17994.85 5331.73,17989.60"/>
    </edge>
    <edge id=":11_17" function="internal">
        <lane id=":11_17_0" index="0" speed="3.65" length="2.34" shape="5338.93,18000.00 5339.33,17999.20 5340.53,17998.40"/>
    </edge>
    <edge id=":11_8" function="internal">
        <lane id=":11_8_0" index="0" speed="6.51" length="9.03" shape="5334.93,17989.60 5335.28,17992.05 5336.33,17993.80 5338.08,17994.85 5340.53,17995.20"/>
    </edge>
    <edge id=":11_9" function="internal">
        <lane id=":11_9_0" index="0" speed="26.82" length="20.80" shape="5334.93,17989.60 5334.93,18010.40"/>
    </edge>
    <edge id=":11_10" function="internal">
        <lane id=":11_10_0" index="0" speed="8.67" length="16.85" shape="5334.93,17989.60 5334.38,17994.85 5332.73,17998.60 5329.98,18000.85 5326.13,18001.60"/>
    </edge>
    <edge id=":11_11" function="internal">
        <lane id=":11_11_0" index="0" speed="3.65" length="4.67" shape="5334.93,17989.60 5334.13,17990.80 5333.33,17991.20 5332.53,17990.80 5331.73,17989.60"/>
    </edge>
    <edge id=":11_12" function="internal">
        <lane id=":11_12_0" index="0" speed="7.33" length="11.73" shape="5326.13,17998.40 5328.58,17997.85 5330.33,17996.20 5331.38,17993.45 5331.73,17989.60"/>
    </edge>
    <edge id=":11_13" function="internal">
        <lane id=":11_13_0" index="0" speed="26.82" length="14.40" shape="5326.13,17998.40 5340.53,17998.40"/>
    </edge>
    <edge id=":11_14" function="internal">
        <lane id=":11_14_0" index="0" speed="8.67" length="7.74" shape="5326.13,17998.40 5329.98,17999.15 5332.73,18001.40 5332.84,18001.64"/>
    </edge>
    <edge id=":11_15" function="internal">
        <lane id=":11_15_0" index="0" speed="3.65" length="2.57" shape="5326.13,17998.40 5327.33,17999.20 5327.73,18000.00 5327.63,18000.21"/>
    </edge>
    <edge id=":11_18" function="internal">
        <lane id=":11_18_0" index="0" speed="8.67" length="9.11" shape="5332.84,18001.64 5334.38,18005.15 5334.93,18010.40"/>
    </edge>
    <edge id=":11_19" function="internal">
        <lane id=":11_19_0" index="0" speed="3.65" length="2.10" shape="5327.63,18000.21 5327.33,18000.80 5326.13,18001.60"/>
    </edge>
    <edge id=":12_0" function="internal">
        <lane id=":12_0_0" index="0" speed="26.82" length="14.40" shape="-11.20,18007.20 -11.20,17992.80"/>
        <lane id=":12_0_1" index="1" speed="26.82" length="14.40" shape="-8.00,18007.20 -8.00,17992.80"/>
        <lane id=":12_0_2" index="2" speed="26.82" length="14.40" shape="-4.80,18007.20 -4.80,17992.80"/>
        <lane id=":12_0_3" index="3" speed="26.82" length="14.40" shape="-1.60,18007.20 -1.60,17992.80"/>
    </edge>
    <edge id=":12_4" function="internal">
        <lane id=":12_4_0" index="0" speed="9.94" length="4.59" shape="-1.60,18007.20 -0.45,18003.35 0.00,18002.99"/>
    </edge>
    <edge id=":12_5" function="internal">
        <lane id=":12_5_0" index="0" speed="3.65" length="2.34" shape="-1.60,18007.20 -0.80,18006.00 0.00,18005.60"/>
    </edge>
    <edge id=":12_17" function="internal">
        <lane id=":12_17_0" index="0" speed="9.94" length="17.89" shape="0.00,18002.99 3.00,18000.60 8.75,17998.95 16.80,17998.40"/>
    </edge>
    <edge id=":12_18" function="internal">
        <lane id=":12_18_0" index="0" speed="3.65" length="2.34" shape="0.00,18005.60 0.80,18006.00 1.60,18007.20"/>
    </edge>
    <edge id=":12_6" function="internal">
        <lane id=":12_6_0" index="0" speed="6.51" length="9.03" shape="16.80,18001.60 14.35,18001.95 12.60,18003.00 11.55,18004.75 11.20,18007.20"/>
    </edge>
    <edge id=":12_7" function="internal">
        <lane id=":12_7_0" index="0" speed="7.33" length="11.73" shape="16.80,18001.60 12.95,18001.95 10.20,18003.00 8.55,18004.75 8.00,18007.20"/>
    </edge>
    <edge id=":12_8" function="internal">
        <lane id=":12_8_0" index="0" speed="10.70" length="26.20" shape="16.80,18001.60 9.21,18001.63 2.25,18000.95 -2.83,17998.39 -4.80,17992.80"/>
    </edge>
    <edge id=":12_9" function="internal">
        <lane id=":12_9_0" index="0" speed="9.94" length="22.48" shape="16.80,18001.60 8.75,18001.05 3.00,17999.40 -0.45,17996.65 -1.60,17992.80"/>
    </edge>
    <edge id=":12_10" function="internal">
        <lane id=":12_10_0" index="0" speed="3.65" length="4.67" shape="16.80,18001.60 15.60,18000.80 15.20,18000.00 15.60,17999.20 16.80,17998.40"/>
    </edge>
    <edge id=":12_11" function="internal">
        <lane id=":12_11_0" index="0" speed="6.51" length="9.03" shape="11.20,17992.80 11.55,17995.25 12.60,17997.00 14.35,17998.05 16.80,17998.40"/>
    </edge>
    <edge id=":12_12" function="internal">
        <lane id=":12_12_0" index="0" speed="26.82" length="14.40" shape="11.20,17992.80 11.20,18007.20"/>
        <lane id=":12_12_1" index="1" speed="26.82" length="14.40" shape="8.00,17992.80 8.00,18007.20"/>
        <lane id=":12_12_2" index="2" speed="26.82" length="14.40" shape="4.80,17992.80 4.80,18007.20"/>
        <lane id=":12_12_3" index="3" speed="26.82" length="14.40" shape="1.60,17992.80 1.60,18007.20"/>
    </edge>
    <edge id=":12_16" function="internal">
        <lane id=":12_16_0" index="0" speed="3.65" length="2.34" shape="1.60,17992.80 0.80,17994.00 0.00,17994.40"/>
    </edge>
    <edge id=":12_19" function="internal">
        <lane id=":12_19_0" index="0" speed="3.65" length="2.34" shape="0.00,17994.40 -0.80,17994.00 -1.60,17992.80"/>
    </edge>
    <edge id=":13_0" function="internal">
        <lane id=":13_0_0" index="0" speed="11.75" length="31.83" shape="-11.20,7.20 -8.23,1.61 -0.95,-0.95 8.21,-1.63 16.80,-1.60"/>
    </edge>
    <edge id=":13_1" function="internal">
        <lane id=":13_1_0" index="0" speed="11.23" length="28.98" shape="-8.00,7.20 -5.53,1.61 0.65,-0.95 8.71,-1.63 16.80,-1.60"/>
    </edge>
    <edge id=":13_2" function="internal">
        <lane id=":13_2_0" index="0" speed="5.58" length="9.35" shape="-4.80,7.20 -2.40,3.60 0.00,2.40 2.40,3.60 4.80,7.20"/>
        <lane id=":13_2_1" index="1" speed="3.65" length="9.35" shape="-1.60,7.20 -0.80,6.00 0.00,5.60 0.80,6.00 1.60,7.20"/>
    </edge>
    <edge id=":13_4" function="internal">
        <lane id=":13_4_0" index="0" speed="6.51" length="9.03" shape="16.80,1.60 14.35,1.95 12.60,3.00 11.55,4.75 11.20,7.20"/>
    </edge>
    <edge id=":13_5" function="internal">
        <lane id=":13_5_0" index="0" speed="7.33" length="11.73" shape="16.80,1.60 12.95,1.95 10.20,3.00 8.55,4.75 8.00,7.20"/>
    </edge>
    <edge id=":13_6" function="internal">
        <lane id=":13_6_0" index="0" speed="8.10" length="14.57" shape="16.80,1.60 11.55,1.95 7.80,3.00 5.55,4.75 4.80,7.20"/>
    </edge>
    <edge id=":13_7" function="internal">
        <lane id=":13_7_0" index="0" speed="8.83" length="17.50" shape="16.80,1.60 10.15,1.95 5.40,3.00 2.55,4.75 1.60,7.20"/>
    </edge>
    <edge id=":13_8" function="internal">
        <lane id=":13_8_0" index="0" speed="3.65" length="4.67" shape="16.80,1.60 15.60,0.80 15.20,0.00 15.60,-0.80 16.80,-1.60"/>
    </edge>
    <edge id=":14_0" function="internal">
        <lane id=":14_0_0" index="0" speed="26.82" length="14.40" shape="5331.73,9340.53 5331.73,9326.13"/>
    </edge>
    <edge id=":14_1" function="internal">
        <lane id=":14_1_0" index="0" speed="8.00" length="5.93" shape="5331.73,9340.53 5332.28,9336.68 5333.33,9334.93"/>
    </edge>
    <edge id=":14_2" function="internal">
        <lane id=":14_2_0" index="0" speed="3.65" length="2.34" shape="5331.73,9340.53 5332.53,9339.33 5333.33,9338.93"/>
    </edge>
    <edge id=":14_9" function="internal">
        <lane id=":14_9_0" index="0" speed="8.00" length="8.26" shape="5333.33,9334.93 5333.93,9333.93 5336.68,9332.28 5340.53,9331.73"/>
    </edge>
    <edge id=":14_10" function="internal">
        <lane id=":14_10_0" index="0" speed="3.65" length="2.34" shape="5333.33,9338.93 5334.13,9339.33 5334.93,9340.53"/>
    </edge>
    <edge id=":14_3" function="internal">
        <lane id=":14_3_0" index="0" speed="6.51" length="9.03" shape="5340.53,9334.93 5338.08,9335.28 5336.33,9336.33 5335.28,9338.08 5334.93,9340.53"/>
    </edge>
    <edge id=":14_4" function="internal">
        <lane id=":14_4_0" index="0" speed="8.00" length="14.19" shape="5340.53,9334.93 5336.68,9334.38 5333.93,9332.73 5332.28,9329.98 5331.73,9326.13"/>
    </edge>
    <edge id=":14_5" function="internal">
        <lane id=":14_5_0" index="0" speed="3.65" length="4.67" shape="5340.53,9334.93 5339.33,9334.13 5338.93,9333.33 5339.33,9332.53 5340.53,9331.73"/>
    </edge>
    <edge id=":14_6" function="internal">
        <lane id=":14_6_0" index="0" speed="6.51" length="9.03" shape="5334.93,9326.13 5335.28,9328.58 5336.33,9330.33 5338.08,9331.38 5340.53,9331.73"/>
    </edge>
    <edge id=":14_7" function="internal">
        <lane id=":14_7_0" index="0" speed="26.82" length="14.40" shape="5334.93,9326.13 5334.93,9340.53"/>
    </edge>
    <edge id=":14_8" function="internal">
        <lane id=":14_8_0" index="0" speed="3.65" length="2.34" shape="5334.93,9326.13 5334.13,9327.33 5333.33,9327.73"/>
    </edge>
    <edge id=":14_11" function="internal">
        <lane id=":14_11_0" index="0" speed="3.65" length="2.34" shape="5333.33,9327.73 5332.53,9327.33 5331.73,9326.13"/>
    </edge>
    <edge id=":15_0" function="internal">
        <lane id=":15_0_0" index="0" speed="7.33" length="11.73" shape="11328.53,9343.73 11328.18,9339.88 11327.13,9337.13 11325.38,9335.48 11322.93,9334.93"/>
    </edge>
    <edge id=":15_1" function="internal">
        <lane id=":15_1_0" index="0" speed="26.82" length="20.80" shape="11328.53,9343.73 11328.53,9322.93"/>
        <lane id=":15_1_1" index="1" speed="26.82" length="20.80" shape="11331.73,9343.73 11331.73,9322.93"/>
    </edge>
    <edge id=":15_3" function="internal">
        <lane id=":15_3_0" index="0" speed="9.26" length="6.96" shape="11331.73,9343.73 11332.48,9338.48 11333.33,9337.06"/>
    </edge>
    <edge id=":15_4" function="internal">
        <lane id=":15_4_0" index="0" speed="3.65" length="2.34" shape="11331.73,9343.73 11332.53,9342.53 11333.33,9342.13"/>
    </edge>
    <edge id=":15_18" function="internal">
        <lane id=":15_18_0" index="0" speed="9.26" length="12.40" shape="11333.33,9337.06 11334.73,9334.73 11338.48,9332.48 11343.73,9331.73"/>
    </edge>
    <edge id=":15_19" function="internal">
        <lane id=":15_19_0" index="0" speed="3.65" length="2.34" shape="11333.33,9342.13 11334.13,9342.53 11334.93,9343.73"/>
    </edge>
    <edge id=":15_5" function="internal">
        <lane id=":15_5_0" index="0" speed="6.51" length="9.03" shape="11343.73,9338.13 11341.28,9338.48 11339.53,9339.53 11338.48,9341.28 11338.13,9343.73"/>
    </edge>
    <edge id=":15_6" function="internal">
        <lane id=":15_6_0" index="0" speed="26.82" length="21.09" shape="11343.73,9338.13 11336.96,9337.63 11331.45,9336.53 11326.88,9335.43 11322.93,9334.93"/>
    </edge>
    <edge id=":15_7" function="internal">
        <lane id=":15_7_0" index="0" speed="9.26" length="19.35" shape="11343.73,9334.93 11338.48,9334.18 11334.73,9331.93 11332.48,9328.18 11331.73,9322.93"/>
    </edge>
    <edge id=":15_8" function="internal">
        <lane id=":15_8_0" index="0" speed="3.65" length="4.67" shape="11343.73,9334.93 11342.53,9334.13 11342.13,9333.33 11342.53,9332.53 11343.73,9331.73"/>
    </edge>
    <edge id=":15_9" function="internal">
        <lane id=":15_9_0" index="0" speed="6.51" length="9.03" shape="11338.13,9322.93 11338.48,9325.38 11339.53,9327.13 11341.28,9328.18 11343.73,9328.53"/>
    </edge>
    <edge id=":15_10" function="internal">
        <lane id=":15_10_0" index="0" speed="26.82" length="20.80" shape="11338.13,9322.93 11338.13,9343.73"/>
        <lane id=":15_10_1" index="1" speed="26.82" length="20.80" shape="11334.93,9322.93 11334.93,9343.73"/>
    </edge>
    <edge id=":15_12" function="internal">
        <lane id=":15_12_0" index="0" speed="9.26" length="6.96" shape="11334.93,9322.93 11334.18,9328.18 11333.33,9329.60"/>
    </edge>
    <edge id=":15_13" function="internal">
        <lane id=":15_13_0" index="0" speed="3.65" length="2.34" shape="11334.93,9322.93 11334.13,9324.13 11333.33,9324.53"/>
    </edge>
    <edge id=":15_20" function="internal">
        <lane id=":15_20_0" index="0" speed="9.26" length="12.40" shape="11333.33,9329.60 11331.93,9331.93 11328.18,9334.18 11322.93,9334.93"/>
    </edge>
    <edge id=":15_21" function="internal">
        <lane id=":15_21_0" index="0" speed="3.65" length="2.34" shape="11333.33,9324.53 11332.53,9324.13 11331.73,9322.93"/>
    </edge>
    <edge id=":15_14" function="internal">
        <lane id=":15_14_0" index="0" speed="7.33" length="11.73" shape="11322.93,9331.73 11325.38,9331.18 11327.13,9329.53 11328.18,9326.78 11328.53,9322.93"/>
    </edge>
    <edge id=":15_15" function="internal">
        <lane id=":15_15_0" index="0" speed="26.82" length="20.80" shape="11322.93,9331.73 11343.73,9331.73"/>
    </edge>
    <edge id=":15_16" function="internal">
        <lane id=":15_16_0" index="0" speed="9.26" length="19.35" shape="11322.93,9331.73 11328.18,9332.48 11331.93,9334.73 11334.18,9338.48 11334.93,9343.73"/>
    </edge>
    <edge id=":15_17" function="internal">
        <lane id=":15_17_0" index="0" speed="3.65" length="4.67" shape="11322.93,9331.73 11324.13,9332.53 11324.53,9333.33 11324.13,9334.13 11322.93,9334.93"/>
    </edge>
    <edge id=":16_0" function="internal">
        <lane id=":16_0_0" index="0" speed="8.10" length="14.57" shape="17998.40,18013.60 17998.05,18008.35 17997.00,18004.60 17995.25,18002.35 17992.80,18001.60"/>
    </edge>
    <edge id=":16_1" function="internal">
        <lane id=":16_1_0" index="0" speed="26.82" length="27.20" shape="17998.40,18013.60 17998.40,17986.40"/>
    </edge>
    <edge id=":16_2" function="internal">
        <lane id=":16_2_0" index="0" speed="9.32" length="19.63" shape="17998.40,18013.60 17998.95,18006.95 18000.60,18002.20 18003.35,17999.35 18007.20,17998.40"/>
    </edge>
    <edge id=":16_3" function="internal">
        <lane id=":16_3_0" index="0" speed="3.65" length="4.67" shape="17998.40,18013.60 17999.20,18012.40 18000.00,18012.00 18000.80,18012.40 18001.60,18013.60"/>
    </edge>
    <edge id=":16_4" function="internal">
        <lane id=":16_4_0" index="0" speed="6.51" length="9.03" shape="18007.20,18008.00 18004.75,18008.35 18003.00,18009.40 18001.95,18011.15 18001.60,18013.60"/>
    </edge>
    <edge id=":16_5" function="internal">
        <lane id=":16_5_0" index="0" speed="26.82" length="14.83" shape="18007.20,18004.80 18002.54,18004.30 17999.11,18003.20 17996.12,18002.10 17992.80,18001.60"/>
    </edge>
    <edge id=":16_6" function="internal">
        <lane id=":16_6_0" index="0" speed="9.32" length="7.71" shape="18007.20,18001.60 18003.35,18000.65 18000.75,17997.95"/>
    </edge>
    <edge id=":16_7" function="internal">
        <lane id=":16_7_0" index="0" speed="3.65" length="2.34" shape="18007.20,18001.60 18006.00,18000.80 18005.60,18000.00"/>
    </edge>
    <edge id=":16_16" function="internal">
        <lane id=":16_16_0" index="0" speed="9.32" length="11.92" shape="18000.75,17997.95 18000.60,17997.80 17998.95,17993.05 17998.40,17986.40"/>
    </edge>
    <edge id=":16_17" function="internal">
        <lane id=":16_17_0" index="0" speed="3.65" length="2.34" shape="18005.60,18000.00 18006.00,17999.20 18007.20,17998.40"/>
    </edge>
    <edge id=":16_8" function="internal">
        <lane id=":16_8_0" index="0" speed="6.51" length="9.03" shape="18001.60,17986.40 18001.95,17988.85 18003.00,17990.60 18004.75,17991.65 18007.20,17992.00"/>
    </edge>
    <edge id=":16_9" function="internal">
        <lane id=":16_9_0" index="0" speed="26.82" length="27.20" shape="18001.60,17986.40 18001.60,18013.60"/>
    </edge>
    <edge id=":16_10" function="internal">
        <lane id=":16_10_0" index="0" speed="9.32" length="19.63" shape="18001.60,17986.40 18001.05,17993.05 17999.40,17997.80 17996.65,18000.65 17992.80,18001.60"/>
    </edge>
    <edge id=":16_11" function="internal">
        <lane id=":16_11_0" index="0" speed="3.65" length="4.67" shape="18001.60,17986.40 18000.80,17987.60 18000.00,17988.00 17999.20,17987.60 17998.40,17986.40"/>
    </edge>
    <edge id=":16_12" function="internal">
        <lane id=":16_12_0" index="0" speed="8.10" length="14.57" shape="17992.80,17998.40 17995.25,17997.65 17997.00,17995.40 17998.05,17991.65 17998.40,17986.40"/>
    </edge>
    <edge id=":16_13" function="internal">
        <lane id=":16_13_0" index="0" speed="26.82" length="14.83" shape="17992.80,17998.40 17996.12,17997.90 17999.11,17996.80 18002.54,17995.70 18007.20,17995.20"/>
    </edge>
    <edge id=":16_14" function="internal">
        <lane id=":16_14_0" index="0" speed="9.32" length="6.64" shape="17992.80,17998.40 17996.65,17999.35 17998.51,18001.27"/>
    </edge>
    <edge id=":16_15" function="internal">
        <lane id=":16_15_0" index="0" speed="3.65" length="2.57" shape="17992.80,17998.40 17994.00,17999.20 17994.40,18000.00 17994.30,18000.21"/>
    </edge>
    <edge id=":16_18" function="internal">
        <lane id=":16_18_0" index="0" speed="9.32" length="12.99" shape="17998.51,18001.27 17999.40,18002.20 18001.05,18006.95 18001.60,18013.60"/>
    </edge>
    <edge id=":16_19" function="internal">
        <lane id=":16_19_0" index="0" speed="3.65" length="2.10" shape="17994.30,18000.21 17994.00,18000.80 17992.80,18001.60"/>
    </edge>
    <edge id=":17_0" function="internal">
        <lane id=":17_0_0" index="0" speed="5.65" length="9.26" shape="17998.40,14009.65 17998.03,14006.88 17996.94,14005.41 17995.11,14005.23 17992.55,14006.34"/>
    </edge>
    <edge id=":17_1" function="internal">
        <lane id=":17_1_0" index="0" speed="26.82" length="15.46" shape="17998.40,14009.65 17998.40,13994.19"/>
    </edge>
    <edge id=":17_2" function="internal">
        <lane id=":17_2_0" index="0" speed="3.65" length="2.34" shape="17998.40,14009.65 17999.20,14008.45 18000.00,14008.05"/>
    </edge>
    <edge id=":17_9" function="internal">
        <lane id=":17_9_0" index="0" speed="3.65" length="2.34" shape="18000.00,14008.05 18000.80,14008.45 18001.60,14009.65"/>
    </edge>
    <edge id=":17_3" function="internal">