<?xml version="1.0" encoding="UTF-8"?>

<!-- generated on 2021-10-26 15:35:51 by Eclipse SUMO od2trips Version 1.9.2
<configuration xmlns:xsi="http://www.w3.org/2001/XMLSchema-instance" xsi:noNamespaceSchemaLocation="http://sumo.dlr.de/xsd/od2tripsConfiguration.xsd">

    <input>
        <taz-files value="myTaZes.taz.xml"/>
        <od-matrix-files value="start_od.txt"/>
    </input>

    <output>
        <output-prefix value="test_"/>
        <output-file value="upd_ODTrips.trips.xml"/>
    </output>

    <processing>
        <spread.uniform value="true"/>
        <no-step-log value="true"/>
    </processing>

</configuration>
-->

<routes xmlns:xsi="http://www.w3.org/2001/XMLSchema-instance" xsi:noNamespaceSchemaLocation="http://sumo.dlr.de/xsd/routes_file.xsd">
    <trip id="978" depart="28816.07" from="#EdgeID69" to="#EdgeID73" fromTaz="22" toTaz="23" departLane="free" departSpeed="max"/>
    <trip id="608" depart="28819.15" from="#EdgeID65" to="#EdgeID67" fromTaz="21" toTaz="22" departLane="free" departSpeed="max"/>
    <trip id="276" depart="28820.00" from="#EdgeID52" to="#EdgeID68" fromTaz="17" toTaz="22" departLane="free" departSpeed="max"/>
    <trip id="1241" depart="28820.22" from="#EdgeID72" to="#EdgeID70" fromTaz="23" toTaz="22" departLane="free" departSpeed="max"/>
    <trip id="813" depart="28823.08" from="#EdgeID69" to="#EdgeID52" fromTaz="22" toTaz="17" departLane="free" departSpeed="max"/>
    <trip id="904" depart="28824.32" from="#EdgeID68" to="#EdgeID64" fromTaz="22" toTaz="21" departLane="free" departSpeed="max"/>
    <trip id="52" depart="28829.03" from="#EdgeID39" to="#EdgeID67" fromTaz="13" toTaz="22" departLane="free" departSpeed="max"/>
    <trip id="441" depart="28833.33" from="#EdgeID53" to="#EdgeID17" fromTaz="17" toTaz="7" departLane="free" departSpeed="max"/>
    <trip id="763" depart="28836.00" from="#EdgeID69" to="#EdgeID39" fromTaz="22" toTaz="13" departLane="free" departSpeed="max"/>
    <trip id="1601" depart="28839.13" from="#EdgeID18" to="#EdgeID53" fromTaz="7" toTaz="17" departLane="free" departSpeed="max"/>
    <trip id="114" depart="28841.86" from="#EdgeID38" to="#EdgeID71" fromTaz="13" toTaz="23" departLane="free" departSpeed="max"/>
    <trip id="702" depart="28847.37" from="#EdgeID66" to="#EdgeID71" fromTaz="21" toTaz="23" departLane="free" departSpeed="max"/>
    <trip id="979" depart="28848.21" from="#EdgeID68" to="#EdgeID71" fromTaz="22" toTaz="23" departLane="free" departSpeed="max"/>
    <trip id="1204" depart="28848.65" from="#EdgeID72" to="#EdgeID66" fromTaz="23" toTaz="21" departLane="free" departSpeed="max"/>
    <trip id="609" depart="28857.45" from="#EdgeID65" to="#EdgeID68" fromTaz="21" toTaz="22" departLane="free" departSpeed="max"/>
    <trip id="1144" depart="28860.00" from="#EdgeID73" to="#EdgeID39" fromTaz="23" toTaz="13" departLane="free" departSpeed="max"/>
    <trip id="277" depart="28860.00" from="#EdgeID53" to="#EdgeID69" fromTaz="17" toTaz="22" departLane="free" departSpeed="max"/>
    <trip id="1242" depart="28860.67" from="#EdgeID72" to="#EdgeID67" fromTaz="23" toTaz="22" departLane="free" departSpeed="max"/>
    <trip id="1369" depart="28864.29" from="#EdgeID8" to="#EdgeID38" fromTaz="4" toTaz="13" departLane="free" departSpeed="max"/>
    <trip id="1174" depart="28866.67" from="#EdgeID71" to="#EdgeID52" fromTaz="23" toTaz="17" departLane="free" departSpeed="max"/>
    <trip id="229" depart="28866.67" from="#EdgeID53" to="#EdgeID56" fromTaz="17" toTaz="18" departLane="free" departSpeed="max"/>
    <trip id="366" depart="28866.67" from="#EdgeID51" to="#EdgeID71" fromTaz="17" toTaz="23" departLane="free" departSpeed="max"/>
    <trip id="1118" depart="28869.23" from="#EdgeID69" to="#EdgeID18" fromTaz="22" toTaz="7" departLane="free" departSpeed="max"/>
    <trip id="1330" depart="28869.23" from="#EdgeID71" to="#EdgeID10" fromTaz="23" toTaz="4" departLane="free" departSpeed="max"/>
    <trip id="814" depart="28869.23" from="#EdgeID69" to="#EdgeID51" fromTaz="22" toTaz="17" departLane="free" departSpeed="max"/>
    <trip id="27" depart="28872.00" from="#EdgeID39" to="#EdgeID64" fromTaz="13" toTaz="21" departLane="free" departSpeed="max"/>
    <trip id="416" depart="28872.00" from="#EdgeID52" to="#EdgeID14" fromTaz="17" toTaz="6" departLane="free" departSpeed="max"/>
    <trip id="498" depart="28872.00" from="#EdgeID54" to="#EdgeID52" fromTaz="18" toTaz="17" departLane="free" departSpeed="max"/>
    <trip id="579" depart="28872.00" from="#EdgeID66" to="#EdgeID52" fromTaz="21" toTaz="17" departLane="free" departSpeed="max"/>
    <trip id="905" depart="28872.97" from="#EdgeID68" to="#EdgeID64" fromTaz="22" toTaz="21" departLane="free" departSpeed="max"/>
    <trip id="0" depart="28878.26" from="#EdgeID39" to="#EdgeID51" fromTaz="13" toTaz="17" departLane="free" departSpeed="max"/>
    <trip id="1397" depart="28878.26" from="#EdgeID9" to="#EdgeID52" fromTaz="4" toTaz="17" departLane="free" departSpeed="max"/>
    <trip id="1664" depart="28878.26" from="#EdgeID18" to="#EdgeID69" fromTaz="7" toTaz="22" departLane="free" departSpeed="max"/>
    <trip id="393" depart="28878.26" from="#EdgeID52" to="#EdgeID8" fromTaz="17" toTaz="4" departLane="free" departSpeed="max"/>
    <trip id="980" depart="28880.36" from="#EdgeID68" to="#EdgeID72" fromTaz="22" toTaz="23" departLane="free" departSpeed="max"/>
    <trip id="187" depart="28885.71" from="#EdgeID38" to="#EdgeID18" fromTaz="13" toTaz="7" departLane="free" departSpeed="max"/>
    <trip id="208" depart="28885.71" from="#EdgeID51" to="#EdgeID39" fromTaz="17" toTaz="13" departLane="free" departSpeed="max"/>
    <trip id="53" depart="28887.10" from="#EdgeID38" to="#EdgeID69" fromTaz="13" toTaz="22" departLane="free" departSpeed="max"/>
    <trip id="1448" depart="28890.00" from="#EdgeID8" to="#EdgeID72" fromTaz="4" toTaz="23" departLane="free" departSpeed="max"/>
    <trip id="1506" depart="28890.00" from="#EdgeID14" to="#EdgeID52" fromTaz="6" toTaz="17" departLane="free" departSpeed="max"/>
    <trip id="157" depart="28890.00" from="#EdgeID39" to="#EdgeID10" fromTaz="13" toTaz="4" departLane="free" departSpeed="max"/>
    <trip id="1712" depart="28890.00" from="#EdgeID17" to="#EdgeID16" fromTaz="7" toTaz="6" departLane="free" departSpeed="max"/>
    <trip id="256" depart="28890.00" from="#EdgeID51" to="#EdgeID66" fromTaz="17" toTaz="21" departLane="free" departSpeed="max"/>
    <trip id="559" depart="28890.00" from="#EdgeID64" to="#EdgeID39" fromTaz="21" toTaz="13" departLane="free" departSpeed="max"/>
    <trip id="1090" depart="28894.74" from="#EdgeID67" to="#EdgeID8" fromTaz="22" toTaz="4" departLane="free" departSpeed="max"/>
    <trip id="1582" depart="28894.74" from="#EdgeID17" to="#EdgeID38" fromTaz="7" toTaz="13" departLane="free" departSpeed="max"/>
    <trip id="610" depart="28895.74" from="#EdgeID66" to="#EdgeID70" fromTaz="21" toTaz="22" departLane="free" departSpeed="max"/>
    <trip id="1564" depart="28900.00" from="#EdgeID16" to="#EdgeID17" fromTaz="6" toTaz="7" departLane="free" departSpeed="max"/>
    <trip id="278" depart="28900.00" from="#EdgeID51" to="#EdgeID69" fromTaz="17" toTaz="22" departLane="free" departSpeed="max"/>
    <trip id="442" depart="28900.00" from="#EdgeID52" to="#EdgeID17" fromTaz="17" toTaz="7" departLane="free" departSpeed="max"/>
    <trip id="1243" depart="28901.12" from="#EdgeID73" to="#EdgeID70" fromTaz="23" toTaz="22" departLane="free" departSpeed="max"/>
    <trip id="1547" depart="28905.88" from="#EdgeID16" to="#EdgeID9" fromTaz="6" toTaz="4" departLane="free" departSpeed="max"/>
    <trip id="764" depart="28908.00" from="#EdgeID68" to="#EdgeID39" fromTaz="22" toTaz="13" departLane="free" departSpeed="max"/>
    <trip id="1483" depart="28912.50" from="#EdgeID8" to="#EdgeID17" fromTaz="4" toTaz="7" departLane="free" departSpeed="max"/>
    <trip id="1696" depart="28912.50" from="#EdgeID18" to="#EdgeID9" fromTaz="7" toTaz="4" departLane="free" departSpeed="max"/>
    <trip id="981" depart="28912.50" from="#EdgeID70" to="#EdgeID73" fromTaz="22" toTaz="23" departLane="free" departSpeed="max"/>
    <trip id="815" depart="28915.38" from="#EdgeID70" to="#EdgeID53" fromTaz="22" toTaz="17" departLane="free" departSpeed="max"/>
    <trip id="1602" depart="28917.39" from="#EdgeID17" to="#EdgeID51" fromTaz="7" toTaz="17" departLane="free" departSpeed="max"/>
    <trip id="1433" depart="28920.00" from="#EdgeID9" to="#EdgeID69" fromTaz="4" toTaz="22" departLane="free" departSpeed="max"/>
    <trip id="1468" depart="28920.00" from="#EdgeID8" to="#EdgeID15" fromTaz="4" toTaz="6" departLane="free" departSpeed="max"/>
    <trip id="906" depart="28921.62" from="#EdgeID69" to="#EdgeID64" fromTaz="22" toTaz="21" departLane="free" departSpeed="max"/>
    <trip id="115" depart="28925.58" from="#EdgeID39" to="#EdgeID73" fromTaz="13" toTaz="23" departLane="free" departSpeed="max"/>
    <trip id="527" depart="28928.57" from="#EdgeID54" to="#EdgeID68" fromTaz="18" toTaz="22" departLane="free" departSpeed="max"/>
    <trip id="611" depart="28934.04" from="#EdgeID65" to="#EdgeID70" fromTaz="21" toTaz="22" departLane="free" departSpeed="max"/>
    <trip id="891" depart="28938.46" from="#EdgeID69" to="#EdgeID54" fromTaz="22" toTaz="18" departLane="free" departSpeed="max"/>
    <trip id="279" depart="28940.00" from="#EdgeID52" to="#EdgeID70" fromTaz="17" toTaz="22" departLane="free" departSpeed="max"/>
    <trip id="1244" depart="28941.57" from="#EdgeID71" to="#EdgeID68" fromTaz="23" toTaz="22" departLane="free" departSpeed="max"/>
    <trip id="703" depart="28942.11" from="#EdgeID66" to="#EdgeID73" fromTaz="21" toTaz="23" departLane="free" departSpeed="max"/>
    <trip id="982" depart="28944.64" from="#EdgeID68" to="#EdgeID72" fromTaz="22" toTaz="23" departLane="free" departSpeed="max"/>
    <trip id="54" depart="28945.16" from="#EdgeID39" to="#EdgeID68" fromTaz="13" toTaz="22" departLane="free" departSpeed="max"/>
    <trip id="1205" depart="28945.95" from="#EdgeID73" to="#EdgeID66" fromTaz="23" toTaz="21" departLane="free" departSpeed="max"/>
    <trip id="816" depart="28961.54" from="#EdgeID70" to="#EdgeID52" fromTaz="22" toTaz="17" departLane="free" departSpeed="max"/>
    <trip id="443" depart="28966.67" from="#EdgeID52" to="#EdgeID17" fromTaz="17" toTaz="7" departLane="free" departSpeed="max"/>
    <trip id="907" depart="28970.27" from="#EdgeID68" to="#EdgeID66" fromTaz="22" toTaz="21" departLane="free" departSpeed="max"/>
    <trip id="612" depart="28972.34" from="#EdgeID65" to="#EdgeID70" fromTaz="21" toTaz="22" departLane="free" departSpeed="max"/>
    <trip id="983" depart="28976.79" from="#EdgeID67" to="#EdgeID71" fromTaz="22" toTaz="23" departLane="free" departSpeed="max"/>
    <trip id="1145" depart="28980.00" from="#EdgeID73" to="#EdgeID39" fromTaz="23" toTaz="13" departLane="free" departSpeed="max"/>
    <trip id="177" depart="28980.00" from="#EdgeID38" to="#EdgeID15" fromTaz="13" toTaz="6" departLane="free" departSpeed="max"/>
    <trip id="280" depart="28980.00" from="#EdgeID53" to="#EdgeID68" fromTaz="17" toTaz="22" departLane="free" departSpeed="max"/>
    <trip id="765" depart="28980.00" from="#EdgeID70" to="#EdgeID38" fromTaz="22" toTaz="13" departLane="free" departSpeed="max"/>
    <trip id="1245" depart="28982.02" from="#EdgeID72" to="#EdgeID67" fromTaz="23" toTaz="22" departLane="free" departSpeed="max"/>
    <trip id="1370" depart="28992.86" from="#EdgeID8" to="#EdgeID38" fromTaz="4" toTaz="13" departLane="free" departSpeed="max"/>
    <trip id="1603" depart="28995.65" from="#EdgeID18" to="#EdgeID51" fromTaz="7" toTaz="17" departLane="free" departSpeed="max"/>
    <trip id="1109" depart="29000.00" from="#EdgeID67" to="#EdgeID14" fromTaz="22" toTaz="6" departLane="free" departSpeed="max"/>
    <trip id="1175" depart="29000.00" from="#EdgeID71" to="#EdgeID51" fromTaz="23" toTaz="17" departLane="free" departSpeed="max"/>
    <trip id="1360" depart="29000.00" from="#EdgeID72" to="#EdgeID17" fromTaz="23" toTaz="7" departLane="free" departSpeed="max"/>
    <trip id="1647" depart="29000.00" from="#EdgeID18" to="#EdgeID54" fromTaz="7" toTaz="18" departLane="free" departSpeed="max"/>
    <trip id="1687" depart="29000.00" from="#EdgeID18" to="#EdgeID72" fromTaz="7" toTaz="23" departLane="free" departSpeed="max"/>
    <trip id="230" depart="29000.00" from="#EdgeID53" to="#EdgeID56" fromTaz="17" toTaz="18" departLane="free" departSpeed="max"/>
    <trip id="367" depart="29000.00" from="#EdgeID51" to="#EdgeID71" fromTaz="17" toTaz="23" departLane="free" departSpeed="max"/>
    <trip id="754" depart="29000.00" from="#EdgeID64" to="#EdgeID18" fromTaz="21" toTaz="7" departLane="free" departSpeed="max"/>
    <trip id="55" depart="29003.23" from="#EdgeID39" to="#EdgeID67" fromTaz="13" toTaz="22" departLane="free" departSpeed="max"/>
    <trip id="1119" depart="29007.69" from="#EdgeID68" to="#EdgeID18" fromTaz="22" toTaz="7" departLane="free" departSpeed="max"/>
    <trip id="1331" depart="29007.69" from="#EdgeID73" to="#EdgeID10" fromTaz="23" toTaz="4" departLane="free" departSpeed="max"/>
    <trip id="817" depart="29007.69" from="#EdgeID69" to="#EdgeID51" fromTaz="22" toTaz="17" departLane="free" departSpeed="max"/>
    <trip id="984" depart="29008.93" from="#EdgeID69" to="#EdgeID71" fromTaz="22" toTaz="23" departLane="free" departSpeed="max"/>
    <trip id="116" depart="29009.30" from="#EdgeID38" to="#EdgeID73" fromTaz="13" toTaz="23" departLane="free" departSpeed="max"/>
    <trip id="613" depart="29010.64" from="#EdgeID66" to="#EdgeID70" fromTaz="21" toTaz="22" departLane="free" departSpeed="max"/>
    <trip id="28" depart="29016.00" from="#EdgeID39" to="#EdgeID64" fromTaz="13" toTaz="21" departLane="free" departSpeed="max"/>
    <trip id="417" depart="29016.00" from="#EdgeID52" to="#EdgeID14" fromTaz="17" toTaz="6" departLane="free" departSpeed="max"/>
    <trip id="499" depart="29016.00" from="#EdgeID56" to="#EdgeID52" fromTaz="18" toTaz="17" departLane="free" departSpeed="max"/>
    <trip id="580" depart="29016.00" from="#EdgeID66" to="#EdgeID51" fromTaz="21" toTaz="17" departLane="free" departSpeed="max"/>
    <trip id="908" depart="29018.92" from="#EdgeID70" to="#EdgeID64" fromTaz="22" toTaz="21" departLane="free" departSpeed="max"/>
    <trip id="281" depart="29020.00" from="#EdgeID51" to="#EdgeID68" fromTaz="17" toTaz="22" departLane="free" departSpeed="max"/>
    <trip id="1246" depart="29022.47" from="#EdgeID71" to="#EdgeID69" fromTaz="23" toTaz="22" departLane="free" departSpeed="max"/>
    <trip id="1425" depart="29025.00" from="#EdgeID8" to="#EdgeID66" fromTaz="4" toTaz="21" departLane="free" departSpeed="max"/>
    <trip id="1534" depart="29025.00" from="#EdgeID15" to="#EdgeID68" fromTaz="6" toTaz="22" departLane="free" departSpeed="max"/>
    <trip id="1656" depart="29025.00" from="#EdgeID17" to="#EdgeID65" fromTaz="7" toTaz="21" departLane="free" departSpeed="max"/>
    <trip id="740" depart="29025.00" from="#EdgeID64" to="#EdgeID10" fromTaz="21" toTaz="4" departLane="free" departSpeed="max"/>
    <trip id="444" depart="29033.33" from="#EdgeID51" to="#EdgeID18" fromTaz="17" toTaz="7" departLane="free" departSpeed="max"/>
    <trip id="1" depart="29034.78" from="#EdgeID38" to="#EdgeID52" fromTaz="13" toTaz="17" departLane="free" departSpeed="max"/>
    <trip id="1398" depart="29034.78" from="#EdgeID8" to="#EdgeID53" fromTaz="4" toTaz="17" departLane="free" departSpeed="max"/>
    <trip id="1665" depart="29034.78" from="#EdgeID18" to="#EdgeID68" fromTaz="7" toTaz="22" departLane="free" departSpeed="max"/>
    <trip id="394" depart="29034.78" from="#EdgeID51" to="#EdgeID9" fromTaz="17" toTaz="4" departLane="free" departSpeed="max"/>
    <trip id="704" depart="29036.84" from="#EdgeID65" to="#EdgeID72" fromTaz="21" toTaz="23" departLane="free" departSpeed="max"/>
    <trip id="985" depart="29041.07" from="#EdgeID70" to="#EdgeID71" fromTaz="22" toTaz="23" departLane="free" departSpeed="max"/>
    <trip id="1206" depart="29043.24" from="#EdgeID72" to="#EdgeID65" fromTaz="23" toTaz="21" departLane="free" departSpeed="max"/>
    <trip id="614" depart="29048.94" from="#EdgeID64" to="#EdgeID69" fromTaz="21" toTaz="22" departLane="free" departSpeed="max"/>
    <trip id="766" depart="29052.00" from="#EdgeID67" to="#EdgeID39" fromTaz="22" toTaz="13" departLane="free" departSpeed="max"/>
    <trip id="818" depart="29053.85" from="#EdgeID67" to="#EdgeID53" fromTaz="22" toTaz="17" departLane="free" departSpeed="max"/>
    <trip id="1499" depart="29057.14" from="#EdgeID15" to="#EdgeID38" fromTaz="6" toTaz="13" departLane="free" departSpeed="max"/>
    <trip id="188" depart="29057.14" from="#EdgeID39" to="#EdgeID17" fromTaz="13" toTaz="7" departLane="free" departSpeed="max"/>
    <trip id="209" depart="29057.14" from="#EdgeID52" to="#EdgeID39" fromTaz="17" toTaz="13" departLane="free" departSpeed="max"/>
    <trip id="552" depart="29057.14" from="#EdgeID55" to="#EdgeID18" fromTaz="18" toTaz="7" departLane="free" departSpeed="max"/>
    <trip id="282" depart="29060.00" from="#EdgeID53" to="#EdgeID68" fromTaz="17" toTaz="22" departLane="free" departSpeed="max"/>
    <trip id="56" depart="29061.29" from="#EdgeID39" to="#EdgeID67" fromTaz="13" toTaz="22" departLane="free" departSpeed="max"/>
    <trip id="1247" depart="29062.92" from="#EdgeID72" to="#EdgeID69" fromTaz="23" toTaz="22" departLane="free" departSpeed="max"/>
    <trip id="909" depart="29067.57" from="#EdgeID68" to="#EdgeID65" fromTaz="22" toTaz="21" departLane="free" departSpeed="max"/>
    <trip id="1449" depart="29070.00" from="#EdgeID8" to="#EdgeID73" fromTaz="4" toTaz="23" departLane="free" departSpeed="max"/>
    <trip id="1507" depart="29070.00" from="#EdgeID15" to="#EdgeID52" fromTaz="6" toTaz="17" departLane="free" departSpeed="max"/>
    <trip id="158" depart="29070.00" from="#EdgeID39" to="#EdgeID8" fromTaz="13" toTaz="4" departLane="free" departSpeed="max"/>
    <trip id="1713" depart="29070.00" from="#EdgeID17" to="#EdgeID15" fromTaz="7" toTaz="6" departLane="free" departSpeed="max"/>
    <trip id="257" depart="29070.00" from="#EdgeID51" to="#EdgeID66" fromTaz="17" toTaz="21" departLane="free" departSpeed="max"/>
    <trip id="560" depart="29070.00" from="#EdgeID66" to="#EdgeID39" fromTaz="21" toTaz="13" departLane="free" departSpeed="max"/>
    <trip id="986" depart="29073.21" from="#EdgeID69" to="#EdgeID71" fromTaz="22" toTaz="23" departLane="free" departSpeed="max"/>
    <trip id="1604" depart="29073.91" from="#EdgeID17" to="#EdgeID51" fromTaz="7" toTaz="17" departLane="free" departSpeed="max"/>
    <trip id="1091" depart="29084.21" from="#EdgeID68" to="#EdgeID10" fromTaz="22" toTaz="4" departLane="free" departSpeed="max"/>
    <trip id="1583" depart="29084.21" from="#EdgeID18" to="#EdgeID39" fromTaz="7" toTaz="13" departLane="free" departSpeed="max"/>
    <trip id="615" depart="29087.23" from="#EdgeID64" to="#EdgeID70" fromTaz="21" toTaz="22" departLane="free" departSpeed="max"/>
    <trip id="117" depart="29093.02" from="#EdgeID38" to="#EdgeID71" fromTaz="13" toTaz="23" departLane="free" departSpeed="max"/>
    <trip id="1146" depart="29100.00" from="#EdgeID71" to="#EdgeID38" fromTaz="23" toTaz="13" departLane="free" departSpeed="max"/>
    <trip id="1565" depart="29100.00" from="#EdgeID14" to="#EdgeID18" fromTaz="6" toTaz="7" departLane="free" departSpeed="max"/>
    <trip id="283" depart="29100.00" from="#EdgeID51" to="#EdgeID67" fromTaz="17" toTaz="22" departLane="free" departSpeed="max"/>
    <trip id="445" depart="29100.00" from="#EdgeID52" to="#EdgeID18" fromTaz="17" toTaz="7" departLane="free" departSpeed="max"/>
    <trip id="748" depart="29100.00" from="#EdgeID65" to="#EdgeID14" fromTaz="21" toTaz="6" departLane="free" departSpeed="max"/>
    <trip id="819" depart="29100.00" from="#EdgeID67" to="#EdgeID51" fromTaz="22" toTaz="17" departLane="free" departSpeed="max"/>
    <trip id="1248" depart="29103.37" from="#EdgeID72" to="#EdgeID67" fromTaz="23" toTaz="22" departLane="free" departSpeed="max"/>
    <trip id="987" depart="29105.36" from="#EdgeID67" to="#EdgeID71" fromTaz="22" toTaz="23" departLane="free" departSpeed="max"/>
    <trip id="910" depart="29116.22" from="#EdgeID69" to="#EdgeID64" fromTaz="22" toTaz="21" departLane="free" departSpeed="max"/>
    <trip id="1548" depart="29117.65" from="#EdgeID14" to="#EdgeID10" fromTaz="6" toTaz="4" departLane="free" departSpeed="max"/>
    <trip id="57" depart="29119.35" from="#EdgeID39" to="#EdgeID68" fromTaz="13" toTaz="22" departLane="free" departSpeed="max"/>
    <trip id="1371" depart="29121.43" from="#EdgeID10" to="#EdgeID38" fromTaz="4" toTaz="13" departLane="free" departSpeed="max"/>
    <trip id="767" depart="29124.00" from="#EdgeID67" to="#EdgeID39" fromTaz="22" toTaz="13" departLane="free" departSpeed="max"/>
    <trip id="616" depart="29125.53" from="#EdgeID65" to="#EdgeID67" fromTaz="21" toTaz="22" departLane="free" departSpeed="max"/>
    <trip id="705" depart="29131.58" from="#EdgeID64" to="#EdgeID72" fromTaz="21" toTaz="23" departLane="free" departSpeed="max"/>
    <trip id="1176" depart="29133.33" from="#EdgeID72" to="#EdgeID51" fromTaz="23" toTaz="17" departLane="free" departSpeed="max"/>
    <trip id="231" depart="29133.33" from="#EdgeID53" to="#EdgeID54" fromTaz="17" toTaz="18" departLane="free" departSpeed="max"/>
    <trip id="368" depart="29133.33" from="#EdgeID53" to="#EdgeID73" fromTaz="17" toTaz="23" departLane="free" departSpeed="max"/>
    <trip id="1484" depart="29137.50" from="#EdgeID10" to="#EdgeID18" fromTaz="4" toTaz="7" departLane="free" departSpeed="max"/>
    <trip id="1697" depart="29137.50" from="#EdgeID17" to="#EdgeID8" fromTaz="7" toTaz="4" departLane="free" departSpeed="max"/>
    <trip id="988" depart="29137.50" from="#EdgeID69" to="#EdgeID73" fromTaz="22" toTaz="23" departLane="free" departSpeed="max"/>
    <trip id="284" depart="29140.00" from="#EdgeID53" to="#EdgeID70" fromTaz="17" toTaz="22" departLane="free" departSpeed="max"/>
    <trip id="1207" depart="29140.54" from="#EdgeID71" to="#EdgeID66" fromTaz="23" toTaz="21" departLane="free" departSpeed="max"/>
    <trip id="1249" depart="29143.82" from="#EdgeID71" to="#EdgeID68" fromTaz="23" toTaz="22" departLane="free" departSpeed="max"/>
    <trip id="1120" depart="29146.15" from="#EdgeID68" to="#EdgeID18" fromTaz="22" toTaz="7" departLane="free" departSpeed="max"/>
    <trip id="1332" depart="29146.15" from="#EdgeID71" to="#EdgeID8" fromTaz="23" toTaz="4" departLane="free" departSpeed="max"/>
    <trip id="820" depart="29146.15" from="#EdgeID68" to="#EdgeID53" fromTaz="22" toTaz="17" departLane="free" departSpeed="max"/>
    <trip id="1605" depart="29152.17" from="#EdgeID18" to="#EdgeID53" fromTaz="7" toTaz="17" departLane="free" departSpeed="max"/>
    <trip id="1420" depart="29160.00" from="#EdgeID8" to="#EdgeID54" fromTaz="4" toTaz="18" departLane="free" departSpeed="max"/>
    <trip id="1434" depart="29160.00" from="#EdgeID10" to="#EdgeID69" fromTaz="4" toTaz="22" departLane="free" departSpeed="max"/>
    <trip id="1469" depart="29160.00" from="#EdgeID8" to="#EdgeID14" fromTaz="4" toTaz="6" departLane="free" departSpeed="max"/>
    <trip id="1542" depart="29160.00" from="#EdgeID14" to="#EdgeID72" fromTaz="6" toTaz="23" departLane="free" departSpeed="max"/>
    <trip id="29" depart="29160.00" from="#EdgeID39" to="#EdgeID64" fromTaz="13" toTaz="21" departLane="free" departSpeed="max"/>
    <trip id="418" depart="29160.00" from="#EdgeID52" to="#EdgeID14" fromTaz="17" toTaz="6" departLane="free" departSpeed="max"/>
    <trip id="500" depart="29160.00" from="#EdgeID56" to="#EdgeID53" fromTaz="18" toTaz="17" departLane="free" departSpeed="max"/>
    <trip id="581" depart="29160.00" from="#EdgeID64" to="#EdgeID52" fromTaz="21" toTaz="17" departLane="free" departSpeed="max"/>
    <trip id="617" depart="29163.83" from="#EdgeID64" to="#EdgeID68" fromTaz="21" toTaz="22" departLane="free" departSpeed="max"/>
    <trip id="911" depart="29164.86" from="#EdgeID70" to="#EdgeID65" fromTaz="22" toTaz="21" departLane="free" departSpeed="max"/>
    <trip id="446" depart="29166.67" from="#EdgeID53" to="#EdgeID17" fromTaz="17" toTaz="7" departLane="free" departSpeed="max"/>
    <trip id="989" depart="29169.64" from="#EdgeID69" to="#EdgeID71" fromTaz="22" toTaz="23" departLane="free" departSpeed="max"/>
    <trip id="118" depart="29176.74" from="#EdgeID38" to="#EdgeID72" fromTaz="13" toTaz="23" departLane="free" departSpeed="max"/>
    <trip id="58" depart="29177.42" from="#EdgeID38" to="#EdgeID67" fromTaz="13" toTaz="22" departLane="free" departSpeed="max"/>
    <trip id="285" depart="29180.00" from="#EdgeID53" to="#EdgeID69" fromTaz="17" toTaz="22" departLane="free" departSpeed="max"/>
    <trip id="1250" depart="29184.27" from="#EdgeID72" to="#EdgeID70" fromTaz="23" toTaz="22" departLane="free" departSpeed="max"/>
    <trip id="528" depart="29185.71" from="#EdgeID55" to="#EdgeID68" fromTaz="18" toTaz="22" departLane="free" departSpeed="max"/>
    <trip id="1399" depart="29191.30" from="#EdgeID10" to="#EdgeID53" fromTaz="4" toTaz="17" departLane="free" departSpeed="max"/>
    <trip id="1666" depart="29191.30" from="#EdgeID18" to="#EdgeID69" fromTaz="7" toTaz="22" departLane="free" departSpeed="max"/>
    <trip id="2" depart="29191.30" from="#EdgeID38" to="#EdgeID53" fromTaz="13" toTaz="17" departLane="free" departSpeed="max"/>
    <trip id="395" depart="29191.30" from="#EdgeID53" to="#EdgeID10" fromTaz="17" toTaz="4" departLane="free" departSpeed="max"/>
    <trip id="821" depart="29192.31" from="#EdgeID70" to="#EdgeID52" fromTaz="22" toTaz="17" departLane="free" departSpeed="max"/>
    <trip id="768" depart="29196.00" from="#EdgeID68" to="#EdgeID39" fromTaz="22" toTaz="13" departLane="free" departSpeed="max"/>
    <trip id="990" depart="29201.79" from="#EdgeID68" to="#EdgeID73" fromTaz="22" toTaz="23" departLane="free" departSpeed="max"/>
    <trip id="618" depart="29202.13" from="#EdgeID64" to="#EdgeID68" fromTaz="21" toTaz="22" departLane="free" departSpeed="max"/>
    <trip id="912" depart="29213.51" from="#EdgeID70" to="#EdgeID66" fromTaz="22" toTaz="21" departLane="free" departSpeed="max"/>
    <trip id="892" depart="29215.38" from="#EdgeID68" to="#EdgeID55" fromTaz="22" toTaz="18" departLane="free" departSpeed="max"/>
    <trip id="1147" depart="29220.00" from="#EdgeID71" to="#EdgeID38" fromTaz="23" toTaz="13" departLane="free" departSpeed="max"/>
    <trip id="286" depart="29220.00" from="#EdgeID53" to="#EdgeID70" fromTaz="17" toTaz="22" departLane="free" departSpeed="max"/>
    <trip id="1251" depart="29224.72" from="#EdgeID73" to="#EdgeID69" fromTaz="23" toTaz="22" departLane="free" departSpeed="max"/>
    <trip id="706" depart="29226.32" from="#EdgeID64" to="#EdgeID72" fromTaz="21" toTaz="23" departLane="free" departSpeed="max"/>
    <trip id="189" depart="29228.57" from="#EdgeID38" to="#EdgeID18" fromTaz="13" toTaz="7" departLane="free" departSpeed="max"/>
    <trip id="210" depart="29228.57" from="#EdgeID51" to="#EdgeID38" fromTaz="17" toTaz="13" departLane="free" departSpeed="max"/>
    <trip id="1606" depart="29230.43" from="#EdgeID18" to="#EdgeID51" fromTaz="7" toTaz="17" departLane="free" departSpeed="max"/>
    <trip id="447" depart="29233.33" from="#EdgeID52" to="#EdgeID17" fromTaz="17" toTaz="7" departLane="free" departSpeed="max"/>
    <trip id="991" depart="29233.93" from="#EdgeID69" to="#EdgeID71" fromTaz="22" toTaz="23" departLane="free" departSpeed="max"/>
    <trip id="59" depart="29235.48" from="#EdgeID38" to="#EdgeID69" fromTaz="13" toTaz="22" departLane="free" departSpeed="max"/>
    <trip id="1208" depart="29237.84" from="#EdgeID72" to="#EdgeID64" fromTaz="23" toTaz="21" departLane="free" departSpeed="max"/>
    <trip id="822" depart="29238.46" from="#EdgeID67" to="#EdgeID51" fromTaz="22" toTaz="17" departLane="free" departSpeed="max"/>
    <trip id="619" depart="29240.43" from="#EdgeID65" to="#EdgeID70" fromTaz="21" toTaz="22" departLane="free" departSpeed="max"/>
    <trip id="1356" depart="29250.00" from="#EdgeID73" to="#EdgeID15" fromTaz="23" toTaz="6" departLane="free" departSpeed="max"/>
    <trip id="1372" depart="29250.00" from="#EdgeID9" to="#EdgeID39" fromTaz="4" toTaz="13" departLane="free" departSpeed="max"/>
    <trip id="1450" depart="29250.00" from="#EdgeID10" to="#EdgeID71" fromTaz="4" toTaz="23" departLane="free" departSpeed="max"/>
    <trip id="1508" depart="29250.00" from="#EdgeID15" to="#EdgeID53" fromTaz="6" toTaz="17" departLane="free" departSpeed="max"/>
    <trip id="1526" depart="29250.00" from="#EdgeID16" to="#EdgeID54" fromTaz="6" toTaz="18" departLane="free" departSpeed="max"/>
    <trip id="1530" depart="29250.00" from="#EdgeID14" to="#EdgeID64" fromTaz="6" toTaz="21" departLane="free" departSpeed="max"/>
    <trip id="159" depart="29250.00" from="#EdgeID39" to="#EdgeID10" fromTaz="13" toTaz="4" departLane="free" departSpeed="max"/>
    <trip id="1714" depart="29250.00" from="#EdgeID18" to="#EdgeID16" fromTaz="7" toTaz="6" departLane="free" departSpeed="max"/>
    <trip id="23" depart="29250.00" from="#EdgeID38" to="#EdgeID56" fromTaz="13" toTaz="18" departLane="free" departSpeed="max"/>
    <trip id="258" depart="29250.00" from="#EdgeID51" to="#EdgeID65" fromTaz="17" toTaz="21" departLane="free" departSpeed="max"/>
    <trip id="523" depart="29250.00" from="#EdgeID54" to="#EdgeID66" fromTaz="18" toTaz="21" departLane="free" departSpeed="max"/>
    <trip id="541" depart="29250.00" from="#EdgeID56" to="#EdgeID73" fromTaz="18" toTaz="23" departLane="free" departSpeed="max"/>
    <trip id="545" depart="29250.00" from="#EdgeID56" to="#EdgeID8" fromTaz="18" toTaz="4" departLane="free" departSpeed="max"/>
    <trip id="561" depart="29250.00" from="#EdgeID64" to="#EdgeID39" fromTaz="21" toTaz="13" departLane="free" departSpeed="max"/>
    <trip id="604" depart="29250.00" from="#EdgeID64" to="#EdgeID56" fromTaz="21" toTaz="18" departLane="free" departSpeed="max"/>